*SPEF "ieee 1481-1999"
*DESIGN "tt_um_wokwi_384711264596377601"
*DATE "12:36:17 Wednesday April 10, 2024"
*VENDOR "The OpenROAD Project"
*PROGRAM "OpenROAD"
*VERSION "0889970d1790a2617e69f253221b8bd7626e51dc"
*DESIGN_FLOW "NAME_SCOPE LOCAL" "PIN_CAP NONE"
*DIVIDER /
*DELIMITER :
*BUS_DELIMITER []
*T_UNIT 1 NS
*C_UNIT 1 PF
*R_UNIT 1 OHM
*L_UNIT 1 HENRY

*NAME_MAP
*3 clk
*4 ena
*5 rst_n
*6 ui_in[0]
*7 ui_in[1]
*8 ui_in[2]
*9 ui_in[3]
*10 ui_in[4]
*11 ui_in[5]
*12 ui_in[6]
*13 ui_in[7]
*14 uio_in[0]
*15 uio_in[1]
*16 uio_in[2]
*17 uio_in[3]
*18 uio_in[4]
*19 uio_in[5]
*20 uio_in[6]
*21 uio_in[7]
*22 net14
*23 net15
*24 net16
*25 net17
*26 net18
*27 net19
*28 net3
*29 net4
*30 net5
*31 net6
*32 net7
*33 net8
*34 net9
*35 net10
*36 net11
*37 net12
*38 uo_out[0]
*39 net13
*40 uo_out[2]
*41 uo_out[3]
*42 uo_out[4]
*43 uo_out[5]
*44 uo_out[6]
*45 uo_out[7]
*46 _00_
*47 net1
*48 net2
*49 or1\.out
*50 FILLER_0_0_109
*51 FILLER_0_0_113
*52 FILLER_0_0_125
*53 FILLER_0_0_137
*54 FILLER_0_0_141
*55 FILLER_0_0_15
*56 FILLER_0_0_153
*57 FILLER_0_0_165
*58 FILLER_0_0_169
*59 FILLER_0_0_181
*60 FILLER_0_0_193
*61 FILLER_0_0_197
*62 FILLER_0_0_209
*63 FILLER_0_0_221
*64 FILLER_0_0_225
*65 FILLER_0_0_237
*66 FILLER_0_0_249
*67 FILLER_0_0_253
*68 FILLER_0_0_265
*69 FILLER_0_0_27
*70 FILLER_0_0_277
*71 FILLER_0_0_281
*72 FILLER_0_0_29
*73 FILLER_0_0_293
*74 FILLER_0_0_3
*75 FILLER_0_0_305
*76 FILLER_0_0_309
*77 FILLER_0_0_321
*78 FILLER_0_0_333
*79 FILLER_0_0_41
*80 FILLER_0_0_53
*81 FILLER_0_0_57
*82 FILLER_0_0_69
*83 FILLER_0_0_81
*84 FILLER_0_0_85
*85 FILLER_0_0_97
*86 FILLER_0_10_109
*87 FILLER_0_10_121
*88 FILLER_0_10_133
*89 FILLER_0_10_139
*90 FILLER_0_10_141
*91 FILLER_0_10_15
*92 FILLER_0_10_153
*93 FILLER_0_10_165
*94 FILLER_0_10_177
*95 FILLER_0_10_189
*96 FILLER_0_10_195
*97 FILLER_0_10_197
*98 FILLER_0_10_209
*99 FILLER_0_10_221
*100 FILLER_0_10_233
*101 FILLER_0_10_245
*102 FILLER_0_10_251
*103 FILLER_0_10_253
*104 FILLER_0_10_265
*105 FILLER_0_10_27
*106 FILLER_0_10_277
*107 FILLER_0_10_289
*108 FILLER_0_10_29
*109 FILLER_0_10_3
*110 FILLER_0_10_301
*111 FILLER_0_10_307
*112 FILLER_0_10_309
*113 FILLER_0_10_321
*114 FILLER_0_10_333
*115 FILLER_0_10_41
*116 FILLER_0_10_53
*117 FILLER_0_10_65
*118 FILLER_0_10_77
*119 FILLER_0_10_83
*120 FILLER_0_10_85
*121 FILLER_0_10_97
*122 FILLER_0_11_105
*123 FILLER_0_11_111
*124 FILLER_0_11_113
*125 FILLER_0_11_125
*126 FILLER_0_11_137
*127 FILLER_0_11_149
*128 FILLER_0_11_15
*129 FILLER_0_11_161
*130 FILLER_0_11_167
*131 FILLER_0_11_169
*132 FILLER_0_11_181
*133 FILLER_0_11_193
*134 FILLER_0_11_205
*135 FILLER_0_11_217
*136 FILLER_0_11_223
*137 FILLER_0_11_225
*138 FILLER_0_11_237
*139 FILLER_0_11_249
*140 FILLER_0_11_261
*141 FILLER_0_11_27
*142 FILLER_0_11_273
*143 FILLER_0_11_279
*144 FILLER_0_11_281
*145 FILLER_0_11_293
*146 FILLER_0_11_3
*147 FILLER_0_11_305
*148 FILLER_0_11_317
*149 FILLER_0_11_329
*150 FILLER_0_11_39
*151 FILLER_0_11_51
*152 FILLER_0_11_55
*153 FILLER_0_11_57
*154 FILLER_0_11_69
*155 FILLER_0_11_81
*156 FILLER_0_11_93
*157 FILLER_0_12_109
*158 FILLER_0_12_121
*159 FILLER_0_12_133
*160 FILLER_0_12_139
*161 FILLER_0_12_141
*162 FILLER_0_12_15
*163 FILLER_0_12_153
*164 FILLER_0_12_165
*165 FILLER_0_12_177
*166 FILLER_0_12_189
*167 FILLER_0_12_195
*168 FILLER_0_12_197
*169 FILLER_0_12_209
*170 FILLER_0_12_221
*171 FILLER_0_12_233
*172 FILLER_0_12_245
*173 FILLER_0_12_251
*174 FILLER_0_12_253
*175 FILLER_0_12_265
*176 FILLER_0_12_27
*177 FILLER_0_12_277
*178 FILLER_0_12_289
*179 FILLER_0_12_29
*180 FILLER_0_12_3
*181 FILLER_0_12_301
*182 FILLER_0_12_307
*183 FILLER_0_12_309
*184 FILLER_0_12_321
*185 FILLER_0_12_333
*186 FILLER_0_12_41
*187 FILLER_0_12_53
*188 FILLER_0_12_65
*189 FILLER_0_12_77
*190 FILLER_0_12_83
*191 FILLER_0_12_85
*192 FILLER_0_12_97
*193 FILLER_0_13_105
*194 FILLER_0_13_111
*195 FILLER_0_13_113
*196 FILLER_0_13_125
*197 FILLER_0_13_137
*198 FILLER_0_13_149
*199 FILLER_0_13_15
*200 FILLER_0_13_161
*201 FILLER_0_13_167
*202 FILLER_0_13_169
*203 FILLER_0_13_181
*204 FILLER_0_13_193
*205 FILLER_0_13_205
*206 FILLER_0_13_217
*207 FILLER_0_13_223
*208 FILLER_0_13_225
*209 FILLER_0_13_237
*210 FILLER_0_13_249
*211 FILLER_0_13_261
*212 FILLER_0_13_27
*213 FILLER_0_13_273
*214 FILLER_0_13_279
*215 FILLER_0_13_281
*216 FILLER_0_13_293
*217 FILLER_0_13_3
*218 FILLER_0_13_305
*219 FILLER_0_13_317
*220 FILLER_0_13_329
*221 FILLER_0_13_39
*222 FILLER_0_13_51
*223 FILLER_0_13_55
*224 FILLER_0_13_57
*225 FILLER_0_13_69
*226 FILLER_0_13_81
*227 FILLER_0_13_93
*228 FILLER_0_14_109
*229 FILLER_0_14_121
*230 FILLER_0_14_133
*231 FILLER_0_14_139
*232 FILLER_0_14_141
*233 FILLER_0_14_15
*234 FILLER_0_14_153
*235 FILLER_0_14_165
*236 FILLER_0_14_177
*237 FILLER_0_14_189
*238 FILLER_0_14_195
*239 FILLER_0_14_197
*240 FILLER_0_14_209
*241 FILLER_0_14_221
*242 FILLER_0_14_233
*243 FILLER_0_14_245
*244 FILLER_0_14_251
*245 FILLER_0_14_253
*246 FILLER_0_14_265
*247 FILLER_0_14_27
*248 FILLER_0_14_277
*249 FILLER_0_14_289
*250 FILLER_0_14_29
*251 FILLER_0_14_3
*252 FILLER_0_14_301
*253 FILLER_0_14_307
*254 FILLER_0_14_309
*255 FILLER_0_14_321
*256 FILLER_0_14_333
*257 FILLER_0_14_41
*258 FILLER_0_14_53
*259 FILLER_0_14_65
*260 FILLER_0_14_77
*261 FILLER_0_14_83
*262 FILLER_0_14_85
*263 FILLER_0_14_97
*264 FILLER_0_15_105
*265 FILLER_0_15_111
*266 FILLER_0_15_113
*267 FILLER_0_15_125
*268 FILLER_0_15_137
*269 FILLER_0_15_149
*270 FILLER_0_15_15
*271 FILLER_0_15_161
*272 FILLER_0_15_167
*273 FILLER_0_15_169
*274 FILLER_0_15_181
*275 FILLER_0_15_193
*276 FILLER_0_15_205
*277 FILLER_0_15_217
*278 FILLER_0_15_223
*279 FILLER_0_15_225
*280 FILLER_0_15_237
*281 FILLER_0_15_249
*282 FILLER_0_15_261
*283 FILLER_0_15_27
*284 FILLER_0_15_273
*285 FILLER_0_15_279
*286 FILLER_0_15_281
*287 FILLER_0_15_293
*288 FILLER_0_15_3
*289 FILLER_0_15_305
*290 FILLER_0_15_317
*291 FILLER_0_15_329
*292 FILLER_0_15_39
*293 FILLER_0_15_51
*294 FILLER_0_15_55
*295 FILLER_0_15_57
*296 FILLER_0_15_69
*297 FILLER_0_15_81
*298 FILLER_0_15_93
*299 FILLER_0_16_109
*300 FILLER_0_16_121
*301 FILLER_0_16_133
*302 FILLER_0_16_139
*303 FILLER_0_16_141
*304 FILLER_0_16_15
*305 FILLER_0_16_153
*306 FILLER_0_16_165
*307 FILLER_0_16_177
*308 FILLER_0_16_189
*309 FILLER_0_16_195
*310 FILLER_0_16_197
*311 FILLER_0_16_209
*312 FILLER_0_16_221
*313 FILLER_0_16_233
*314 FILLER_0_16_245
*315 FILLER_0_16_251
*316 FILLER_0_16_253
*317 FILLER_0_16_265
*318 FILLER_0_16_27
*319 FILLER_0_16_277
*320 FILLER_0_16_289
*321 FILLER_0_16_29
*322 FILLER_0_16_3
*323 FILLER_0_16_301
*324 FILLER_0_16_307
*325 FILLER_0_16_309
*326 FILLER_0_16_321
*327 FILLER_0_16_333
*328 FILLER_0_16_41
*329 FILLER_0_16_53
*330 FILLER_0_16_65
*331 FILLER_0_16_77
*332 FILLER_0_16_83
*333 FILLER_0_16_85
*334 FILLER_0_16_97
*335 FILLER_0_17_105
*336 FILLER_0_17_111
*337 FILLER_0_17_113
*338 FILLER_0_17_125
*339 FILLER_0_17_137
*340 FILLER_0_17_149
*341 FILLER_0_17_15
*342 FILLER_0_17_161
*343 FILLER_0_17_167
*344 FILLER_0_17_169
*345 FILLER_0_17_181
*346 FILLER_0_17_193
*347 FILLER_0_17_205
*348 FILLER_0_17_217
*349 FILLER_0_17_223
*350 FILLER_0_17_225
*351 FILLER_0_17_237
*352 FILLER_0_17_249
*353 FILLER_0_17_261
*354 FILLER_0_17_27
*355 FILLER_0_17_273
*356 FILLER_0_17_279
*357 FILLER_0_17_281
*358 FILLER_0_17_293
*359 FILLER_0_17_3
*360 FILLER_0_17_305
*361 FILLER_0_17_317
*362 FILLER_0_17_329
*363 FILLER_0_17_39
*364 FILLER_0_17_51
*365 FILLER_0_17_55
*366 FILLER_0_17_57
*367 FILLER_0_17_69
*368 FILLER_0_17_81
*369 FILLER_0_17_93
*370 FILLER_0_18_109
*371 FILLER_0_18_121
*372 FILLER_0_18_133
*373 FILLER_0_18_139
*374 FILLER_0_18_141
*375 FILLER_0_18_15
*376 FILLER_0_18_153
*377 FILLER_0_18_165
*378 FILLER_0_18_177
*379 FILLER_0_18_189
*380 FILLER_0_18_195
*381 FILLER_0_18_197
*382 FILLER_0_18_209
*383 FILLER_0_18_221
*384 FILLER_0_18_233
*385 FILLER_0_18_245
*386 FILLER_0_18_251
*387 FILLER_0_18_253
*388 FILLER_0_18_265
*389 FILLER_0_18_27
*390 FILLER_0_18_277
*391 FILLER_0_18_289
*392 FILLER_0_18_29
*393 FILLER_0_18_3
*394 FILLER_0_18_301
*395 FILLER_0_18_307
*396 FILLER_0_18_309
*397 FILLER_0_18_321
*398 FILLER_0_18_333
*399 FILLER_0_18_41
*400 FILLER_0_18_53
*401 FILLER_0_18_65
*402 FILLER_0_18_77
*403 FILLER_0_18_83
*404 FILLER_0_18_85
*405 FILLER_0_18_97
*406 FILLER_0_19_105
*407 FILLER_0_19_111
*408 FILLER_0_19_113
*409 FILLER_0_19_125
*410 FILLER_0_19_137
*411 FILLER_0_19_149
*412 FILLER_0_19_15
*413 FILLER_0_19_161
*414 FILLER_0_19_167
*415 FILLER_0_19_169
*416 FILLER_0_19_181
*417 FILLER_0_19_193
*418 FILLER_0_19_205
*419 FILLER_0_19_217
*420 FILLER_0_19_223
*421 FILLER_0_19_225
*422 FILLER_0_19_237
*423 FILLER_0_19_249
*424 FILLER_0_19_261
*425 FILLER_0_19_27
*426 FILLER_0_19_273
*427 FILLER_0_19_279
*428 FILLER_0_19_281
*429 FILLER_0_19_293
*430 FILLER_0_19_3
*431 FILLER_0_19_305
*432 FILLER_0_19_317
*433 FILLER_0_19_329
*434 FILLER_0_19_39
*435 FILLER_0_19_51
*436 FILLER_0_19_55
*437 FILLER_0_19_57
*438 FILLER_0_19_69
*439 FILLER_0_19_81
*440 FILLER_0_19_93
*441 FILLER_0_1_105
*442 FILLER_0_1_111
*443 FILLER_0_1_113
*444 FILLER_0_1_125
*445 FILLER_0_1_137
*446 FILLER_0_1_149
*447 FILLER_0_1_15
*448 FILLER_0_1_161
*449 FILLER_0_1_167
*450 FILLER_0_1_169
*451 FILLER_0_1_181
*452 FILLER_0_1_193
*453 FILLER_0_1_205
*454 FILLER_0_1_217
*455 FILLER_0_1_223
*456 FILLER_0_1_225
*457 FILLER_0_1_237
*458 FILLER_0_1_249
*459 FILLER_0_1_261
*460 FILLER_0_1_27
*461 FILLER_0_1_273
*462 FILLER_0_1_279
*463 FILLER_0_1_281
*464 FILLER_0_1_293
*465 FILLER_0_1_3
*466 FILLER_0_1_305
*467 FILLER_0_1_317
*468 FILLER_0_1_329
*469 FILLER_0_1_39
*470 FILLER_0_1_51
*471 FILLER_0_1_55
*472 FILLER_0_1_57
*473 FILLER_0_1_69
*474 FILLER_0_1_81
*475 FILLER_0_1_93
*476 FILLER_0_20_109
*477 FILLER_0_20_121
*478 FILLER_0_20_133
*479 FILLER_0_20_139
*480 FILLER_0_20_141
*481 FILLER_0_20_15
*482 FILLER_0_20_153
*483 FILLER_0_20_165
*484 FILLER_0_20_177
*485 FILLER_0_20_189
*486 FILLER_0_20_195
*487 FILLER_0_20_197
*488 FILLER_0_20_209
*489 FILLER_0_20_221
*490 FILLER_0_20_233
*491 FILLER_0_20_245
*492 FILLER_0_20_251
*493 FILLER_0_20_253
*494 FILLER_0_20_265
*495 FILLER_0_20_27
*496 FILLER_0_20_277
*497 FILLER_0_20_289
*498 FILLER_0_20_29
*499 FILLER_0_20_3
*500 FILLER_0_20_301
*501 FILLER_0_20_307
*502 FILLER_0_20_309
*503 FILLER_0_20_321
*504 FILLER_0_20_333
*505 FILLER_0_20_41
*506 FILLER_0_20_53
*507 FILLER_0_20_65
*508 FILLER_0_20_77
*509 FILLER_0_20_83
*510 FILLER_0_20_85
*511 FILLER_0_20_97
*512 FILLER_0_21_105
*513 FILLER_0_21_111
*514 FILLER_0_21_113
*515 FILLER_0_21_125
*516 FILLER_0_21_137
*517 FILLER_0_21_149
*518 FILLER_0_21_15
*519 FILLER_0_21_161
*520 FILLER_0_21_167
*521 FILLER_0_21_169
*522 FILLER_0_21_181
*523 FILLER_0_21_193
*524 FILLER_0_21_205
*525 FILLER_0_21_217
*526 FILLER_0_21_223
*527 FILLER_0_21_225
*528 FILLER_0_21_237
*529 FILLER_0_21_249
*530 FILLER_0_21_261
*531 FILLER_0_21_27
*532 FILLER_0_21_273
*533 FILLER_0_21_279
*534 FILLER_0_21_281
*535 FILLER_0_21_293
*536 FILLER_0_21_3
*537 FILLER_0_21_305
*538 FILLER_0_21_317
*539 FILLER_0_21_329
*540 FILLER_0_21_39
*541 FILLER_0_21_51
*542 FILLER_0_21_55
*543 FILLER_0_21_57
*544 FILLER_0_21_69
*545 FILLER_0_21_81
*546 FILLER_0_21_93
*547 FILLER_0_22_109
*548 FILLER_0_22_121
*549 FILLER_0_22_133
*550 FILLER_0_22_139
*551 FILLER_0_22_141
*552 FILLER_0_22_15
*553 FILLER_0_22_153
*554 FILLER_0_22_165
*555 FILLER_0_22_177
*556 FILLER_0_22_189
*557 FILLER_0_22_195
*558 FILLER_0_22_197
*559 FILLER_0_22_209
*560 FILLER_0_22_221
*561 FILLER_0_22_233
*562 FILLER_0_22_245
*563 FILLER_0_22_251
*564 FILLER_0_22_253
*565 FILLER_0_22_265
*566 FILLER_0_22_27
*567 FILLER_0_22_277
*568 FILLER_0_22_289
*569 FILLER_0_22_29
*570 FILLER_0_22_3
*571 FILLER_0_22_301
*572 FILLER_0_22_307
*573 FILLER_0_22_309
*574 FILLER_0_22_321
*575 FILLER_0_22_333
*576 FILLER_0_22_41
*577 FILLER_0_22_53
*578 FILLER_0_22_65
*579 FILLER_0_22_77
*580 FILLER_0_22_83
*581 FILLER_0_22_85
*582 FILLER_0_22_97
*583 FILLER_0_23_105
*584 FILLER_0_23_111
*585 FILLER_0_23_113
*586 FILLER_0_23_125
*587 FILLER_0_23_137
*588 FILLER_0_23_149
*589 FILLER_0_23_15
*590 FILLER_0_23_161
*591 FILLER_0_23_167
*592 FILLER_0_23_169
*593 FILLER_0_23_181
*594 FILLER_0_23_193
*595 FILLER_0_23_205
*596 FILLER_0_23_217
*597 FILLER_0_23_223
*598 FILLER_0_23_225
*599 FILLER_0_23_237
*600 FILLER_0_23_249
*601 FILLER_0_23_261
*602 FILLER_0_23_27
*603 FILLER_0_23_273
*604 FILLER_0_23_279
*605 FILLER_0_23_281
*606 FILLER_0_23_293
*607 FILLER_0_23_3
*608 FILLER_0_23_305
*609 FILLER_0_23_317
*610 FILLER_0_23_329
*611 FILLER_0_23_39
*612 FILLER_0_23_51
*613 FILLER_0_23_55
*614 FILLER_0_23_57
*615 FILLER_0_23_69
*616 FILLER_0_23_81
*617 FILLER_0_23_93
*618 FILLER_0_24_109
*619 FILLER_0_24_121
*620 FILLER_0_24_133
*621 FILLER_0_24_139
*622 FILLER_0_24_141
*623 FILLER_0_24_15
*624 FILLER_0_24_153
*625 FILLER_0_24_165
*626 FILLER_0_24_177
*627 FILLER_0_24_189
*628 FILLER_0_24_195
*629 FILLER_0_24_197
*630 FILLER_0_24_209
*631 FILLER_0_24_221
*632 FILLER_0_24_233
*633 FILLER_0_24_245
*634 FILLER_0_24_251
*635 FILLER_0_24_253
*636 FILLER_0_24_265
*637 FILLER_0_24_27
*638 FILLER_0_24_277
*639 FILLER_0_24_289
*640 FILLER_0_24_29
*641 FILLER_0_24_3
*642 FILLER_0_24_301
*643 FILLER_0_24_307
*644 FILLER_0_24_309
*645 FILLER_0_24_321
*646 FILLER_0_24_333
*647 FILLER_0_24_41
*648 FILLER_0_24_53
*649 FILLER_0_24_65
*650 FILLER_0_24_77
*651 FILLER_0_24_83
*652 FILLER_0_24_85
*653 FILLER_0_24_97
*654 FILLER_0_25_105
*655 FILLER_0_25_111
*656 FILLER_0_25_113
*657 FILLER_0_25_125
*658 FILLER_0_25_137
*659 FILLER_0_25_149
*660 FILLER_0_25_15
*661 FILLER_0_25_161
*662 FILLER_0_25_167
*663 FILLER_0_25_169
*664 FILLER_0_25_181
*665 FILLER_0_25_193
*666 FILLER_0_25_205
*667 FILLER_0_25_217
*668 FILLER_0_25_223
*669 FILLER_0_25_225
*670 FILLER_0_25_237
*671 FILLER_0_25_249
*672 FILLER_0_25_261
*673 FILLER_0_25_27
*674 FILLER_0_25_273
*675 FILLER_0_25_279
*676 FILLER_0_25_281
*677 FILLER_0_25_293
*678 FILLER_0_25_3
*679 FILLER_0_25_305
*680 FILLER_0_25_317
*681 FILLER_0_25_329
*682 FILLER_0_25_39
*683 FILLER_0_25_51
*684 FILLER_0_25_55
*685 FILLER_0_25_57
*686 FILLER_0_25_69
*687 FILLER_0_25_81
*688 FILLER_0_25_93
*689 FILLER_0_26_109
*690 FILLER_0_26_121
*691 FILLER_0_26_133
*692 FILLER_0_26_139
*693 FILLER_0_26_141
*694 FILLER_0_26_15
*695 FILLER_0_26_153
*696 FILLER_0_26_165
*697 FILLER_0_26_177
*698 FILLER_0_26_189
*699 FILLER_0_26_195
*700 FILLER_0_26_197
*701 FILLER_0_26_209
*702 FILLER_0_26_221
*703 FILLER_0_26_233
*704 FILLER_0_26_245
*705 FILLER_0_26_251
*706 FILLER_0_26_253
*707 FILLER_0_26_265
*708 FILLER_0_26_27
*709 FILLER_0_26_277
*710 FILLER_0_26_289
*711 FILLER_0_26_29
*712 FILLER_0_26_3
*713 FILLER_0_26_301
*714 FILLER_0_26_307
*715 FILLER_0_26_309
*716 FILLER_0_26_321
*717 FILLER_0_26_333
*718 FILLER_0_26_41
*719 FILLER_0_26_53
*720 FILLER_0_26_65
*721 FILLER_0_26_77
*722 FILLER_0_26_83
*723 FILLER_0_26_85
*724 FILLER_0_26_97
*725 FILLER_0_27_105
*726 FILLER_0_27_111
*727 FILLER_0_27_113
*728 FILLER_0_27_125
*729 FILLER_0_27_137
*730 FILLER_0_27_149
*731 FILLER_0_27_15
*732 FILLER_0_27_161
*733 FILLER_0_27_167
*734 FILLER_0_27_169
*735 FILLER_0_27_181
*736 FILLER_0_27_193
*737 FILLER_0_27_205
*738 FILLER_0_27_217
*739 FILLER_0_27_223
*740 FILLER_0_27_225
*741 FILLER_0_27_237
*742 FILLER_0_27_249
*743 FILLER_0_27_261
*744 FILLER_0_27_27
*745 FILLER_0_27_273
*746 FILLER_0_27_279
*747 FILLER_0_27_281
*748 FILLER_0_27_293
*749 FILLER_0_27_3
*750 FILLER_0_27_305
*751 FILLER_0_27_317
*752 FILLER_0_27_329
*753 FILLER_0_27_39
*754 FILLER_0_27_51
*755 FILLER_0_27_55
*756 FILLER_0_27_57
*757 FILLER_0_27_69
*758 FILLER_0_27_81
*759 FILLER_0_27_93
*760 FILLER_0_28_109
*761 FILLER_0_28_121
*762 FILLER_0_28_133
*763 FILLER_0_28_139
*764 FILLER_0_28_141
*765 FILLER_0_28_15
*766 FILLER_0_28_153
*767 FILLER_0_28_165
*768 FILLER_0_28_177
*769 FILLER_0_28_189
*770 FILLER_0_28_195
*771 FILLER_0_28_197
*772 FILLER_0_28_209
*773 FILLER_0_28_221
*774 FILLER_0_28_233
*775 FILLER_0_28_245
*776 FILLER_0_28_251
*777 FILLER_0_28_253
*778 FILLER_0_28_265
*779 FILLER_0_28_27
*780 FILLER_0_28_277
*781 FILLER_0_28_289
*782 FILLER_0_28_29
*783 FILLER_0_28_3
*784 FILLER_0_28_301
*785 FILLER_0_28_307
*786 FILLER_0_28_309
*787 FILLER_0_28_321
*788 FILLER_0_28_333
*789 FILLER_0_28_41
*790 FILLER_0_28_53
*791 FILLER_0_28_65
*792 FILLER_0_28_77
*793 FILLER_0_28_83
*794 FILLER_0_28_85
*795 FILLER_0_28_97
*796 FILLER_0_29_105
*797 FILLER_0_29_111
*798 FILLER_0_29_113
*799 FILLER_0_29_125
*800 FILLER_0_29_137
*801 FILLER_0_29_149
*802 FILLER_0_29_15
*803 FILLER_0_29_161
*804 FILLER_0_29_167
*805 FILLER_0_29_169
*806 FILLER_0_29_181
*807 FILLER_0_29_193
*808 FILLER_0_29_205
*809 FILLER_0_29_217
*810 FILLER_0_29_223
*811 FILLER_0_29_225
*812 FILLER_0_29_237
*813 FILLER_0_29_249
*814 FILLER_0_29_261
*815 FILLER_0_29_27
*816 FILLER_0_29_273
*817 FILLER_0_29_279
*818 FILLER_0_29_281
*819 FILLER_0_29_293
*820 FILLER_0_29_3
*821 FILLER_0_29_305
*822 FILLER_0_29_317
*823 FILLER_0_29_329
*824 FILLER_0_29_39
*825 FILLER_0_29_51
*826 FILLER_0_29_55
*827 FILLER_0_29_57
*828 FILLER_0_29_69
*829 FILLER_0_29_81
*830 FILLER_0_29_93
*831 FILLER_0_2_109
*832 FILLER_0_2_121
*833 FILLER_0_2_133
*834 FILLER_0_2_139
*835 FILLER_0_2_141
*836 FILLER_0_2_15
*837 FILLER_0_2_153
*838 FILLER_0_2_165
*839 FILLER_0_2_177
*840 FILLER_0_2_189
*841 FILLER_0_2_195
*842 FILLER_0_2_197
*843 FILLER_0_2_209
*844 FILLER_0_2_221
*845 FILLER_0_2_233
*846 FILLER_0_2_245
*847 FILLER_0_2_251
*848 FILLER_0_2_253
*849 FILLER_0_2_265
*850 FILLER_0_2_27
*851 FILLER_0_2_277
*852 FILLER_0_2_289
*853 FILLER_0_2_29
*854 FILLER_0_2_3
*855 FILLER_0_2_301
*856 FILLER_0_2_307
*857 FILLER_0_2_309
*858 FILLER_0_2_321
*859 FILLER_0_2_333
*860 FILLER_0_2_41
*861 FILLER_0_2_53
*862 FILLER_0_2_65
*863 FILLER_0_2_77
*864 FILLER_0_2_83
*865 FILLER_0_2_85
*866 FILLER_0_2_97
*867 FILLER_0_30_109
*868 FILLER_0_30_121
*869 FILLER_0_30_133
*870 FILLER_0_30_139
*871 FILLER_0_30_141
*872 FILLER_0_30_15
*873 FILLER_0_30_153
*874 FILLER_0_30_165
*875 FILLER_0_30_177
*876 FILLER_0_30_189
*877 FILLER_0_30_195
*878 FILLER_0_30_197
*879 FILLER_0_30_209
*880 FILLER_0_30_221
*881 FILLER_0_30_233
*882 FILLER_0_30_245
*883 FILLER_0_30_251
*884 FILLER_0_30_253
*885 FILLER_0_30_265
*886 FILLER_0_30_27
*887 FILLER_0_30_277
*888 FILLER_0_30_289
*889 FILLER_0_30_29
*890 FILLER_0_30_3
*891 FILLER_0_30_301
*892 FILLER_0_30_307
*893 FILLER_0_30_309
*894 FILLER_0_30_321
*895 FILLER_0_30_333
*896 FILLER_0_30_41
*897 FILLER_0_30_53
*898 FILLER_0_30_65
*899 FILLER_0_30_77
*900 FILLER_0_30_83
*901 FILLER_0_30_85
*902 FILLER_0_30_97
*903 FILLER_0_31_105
*904 FILLER_0_31_111
*905 FILLER_0_31_113
*906 FILLER_0_31_125
*907 FILLER_0_31_137
*908 FILLER_0_31_149
*909 FILLER_0_31_15
*910 FILLER_0_31_161
*911 FILLER_0_31_167
*912 FILLER_0_31_169
*913 FILLER_0_31_181
*914 FILLER_0_31_193
*915 FILLER_0_31_205
*916 FILLER_0_31_217
*917 FILLER_0_31_223
*918 FILLER_0_31_225
*919 FILLER_0_31_237
*920 FILLER_0_31_249
*921 FILLER_0_31_261
*922 FILLER_0_31_27
*923 FILLER_0_31_273
*924 FILLER_0_31_279
*925 FILLER_0_31_281
*926 FILLER_0_31_293
*927 FILLER_0_31_3
*928 FILLER_0_31_305
*929 FILLER_0_31_317
*930 FILLER_0_31_329
*931 FILLER_0_31_39
*932 FILLER_0_31_51
*933 FILLER_0_31_55
*934 FILLER_0_31_57
*935 FILLER_0_31_69
*936 FILLER_0_31_81
*937 FILLER_0_31_93
*938 FILLER_0_32_109
*939 FILLER_0_32_121
*940 FILLER_0_32_133
*941 FILLER_0_32_139
*942 FILLER_0_32_141
*943 FILLER_0_32_15
*944 FILLER_0_32_153
*945 FILLER_0_32_165
*946 FILLER_0_32_177
*947 FILLER_0_32_189
*948 FILLER_0_32_195
*949 FILLER_0_32_197
*950 FILLER_0_32_209
*951 FILLER_0_32_221
*952 FILLER_0_32_233
*953 FILLER_0_32_245
*954 FILLER_0_32_251
*955 FILLER_0_32_253
*956 FILLER_0_32_265
*957 FILLER_0_32_27
*958 FILLER_0_32_277
*959 FILLER_0_32_289
*960 FILLER_0_32_29
*961 FILLER_0_32_3
*962 FILLER_0_32_301
*963 FILLER_0_32_307
*964 FILLER_0_32_309
*965 FILLER_0_32_321
*966 FILLER_0_32_333
*967 FILLER_0_32_41
*968 FILLER_0_32_53
*969 FILLER_0_32_65
*970 FILLER_0_32_77
*971 FILLER_0_32_83
*972 FILLER_0_32_85
*973 FILLER_0_32_97
*974 FILLER_0_33_105
*975 FILLER_0_33_111
*976 FILLER_0_33_113
*977 FILLER_0_33_125
*978 FILLER_0_33_137
*979 FILLER_0_33_149
*980 FILLER_0_33_15
*981 FILLER_0_33_161
*982 FILLER_0_33_167
*983 FILLER_0_33_169
*984 FILLER_0_33_181
*985 FILLER_0_33_193
*986 FILLER_0_33_205
*987 FILLER_0_33_217
*988 FILLER_0_33_223
*989 FILLER_0_33_225
*990 FILLER_0_33_237
*991 FILLER_0_33_249
*992 FILLER_0_33_261
*993 FILLER_0_33_27
*994 FILLER_0_33_273
*995 FILLER_0_33_279
*996 FILLER_0_33_281
*997 FILLER_0_33_293
*998 FILLER_0_33_3
*999 FILLER_0_33_305
*1000 FILLER_0_33_317
*1001 FILLER_0_33_329
*1002 FILLER_0_33_39
*1003 FILLER_0_33_51
*1004 FILLER_0_33_55
*1005 FILLER_0_33_57
*1006 FILLER_0_33_69
*1007 FILLER_0_33_81
*1008 FILLER_0_33_93
*1009 FILLER_0_34_109
*1010 FILLER_0_34_121
*1011 FILLER_0_34_133
*1012 FILLER_0_34_139
*1013 FILLER_0_34_141
*1014 FILLER_0_34_15
*1015 FILLER_0_34_153
*1016 FILLER_0_34_165
*1017 FILLER_0_34_177
*1018 FILLER_0_34_189
*1019 FILLER_0_34_195
*1020 FILLER_0_34_197
*1021 FILLER_0_34_209
*1022 FILLER_0_34_221
*1023 FILLER_0_34_233
*1024 FILLER_0_34_245
*1025 FILLER_0_34_251
*1026 FILLER_0_34_253
*1027 FILLER_0_34_265
*1028 FILLER_0_34_27
*1029 FILLER_0_34_277
*1030 FILLER_0_34_289
*1031 FILLER_0_34_29
*1032 FILLER_0_34_3
*1033 FILLER_0_34_301
*1034 FILLER_0_34_307
*1035 FILLER_0_34_309
*1036 FILLER_0_34_321
*1037 FILLER_0_34_333
*1038 FILLER_0_34_41
*1039 FILLER_0_34_53
*1040 FILLER_0_34_65
*1041 FILLER_0_34_77
*1042 FILLER_0_34_83
*1043 FILLER_0_34_85
*1044 FILLER_0_34_97
*1045 FILLER_0_35_105
*1046 FILLER_0_35_111
*1047 FILLER_0_35_113
*1048 FILLER_0_35_125
*1049 FILLER_0_35_137
*1050 FILLER_0_35_149
*1051 FILLER_0_35_15
*1052 FILLER_0_35_161
*1053 FILLER_0_35_167
*1054 FILLER_0_35_169
*1055 FILLER_0_35_181
*1056 FILLER_0_35_193
*1057 FILLER_0_35_205
*1058 FILLER_0_35_217
*1059 FILLER_0_35_223
*1060 FILLER_0_35_225
*1061 FILLER_0_35_237
*1062 FILLER_0_35_249
*1063 FILLER_0_35_261
*1064 FILLER_0_35_27
*1065 FILLER_0_35_273
*1066 FILLER_0_35_279
*1067 FILLER_0_35_281
*1068 FILLER_0_35_293
*1069 FILLER_0_35_3
*1070 FILLER_0_35_305
*1071 FILLER_0_35_317
*1072 FILLER_0_35_329
*1073 FILLER_0_35_39
*1074 FILLER_0_35_51
*1075 FILLER_0_35_55
*1076 FILLER_0_35_57
*1077 FILLER_0_35_69
*1078 FILLER_0_35_81
*1079 FILLER_0_35_93
*1080 FILLER_0_36_109
*1081 FILLER_0_36_121
*1082 FILLER_0_36_133
*1083 FILLER_0_36_139
*1084 FILLER_0_36_141
*1085 FILLER_0_36_15
*1086 FILLER_0_36_153
*1087 FILLER_0_36_165
*1088 FILLER_0_36_177
*1089 FILLER_0_36_189
*1090 FILLER_0_36_195
*1091 FILLER_0_36_197
*1092 FILLER_0_36_209
*1093 FILLER_0_36_221
*1094 FILLER_0_36_233
*1095 FILLER_0_36_245
*1096 FILLER_0_36_251
*1097 FILLER_0_36_253
*1098 FILLER_0_36_265
*1099 FILLER_0_36_27
*1100 FILLER_0_36_277
*1101 FILLER_0_36_289
*1102 FILLER_0_36_29
*1103 FILLER_0_36_3
*1104 FILLER_0_36_301
*1105 FILLER_0_36_307
*1106 FILLER_0_36_309
*1107 FILLER_0_36_321
*1108 FILLER_0_36_333
*1109 FILLER_0_36_41
*1110 FILLER_0_36_53
*1111 FILLER_0_36_65
*1112 FILLER_0_36_77
*1113 FILLER_0_36_83
*1114 FILLER_0_36_85
*1115 FILLER_0_36_97
*1116 FILLER_0_37_105
*1117 FILLER_0_37_111
*1118 FILLER_0_37_113
*1119 FILLER_0_37_125
*1120 FILLER_0_37_137
*1121 FILLER_0_37_149
*1122 FILLER_0_37_15
*1123 FILLER_0_37_161
*1124 FILLER_0_37_167
*1125 FILLER_0_37_169
*1126 FILLER_0_37_181
*1127 FILLER_0_37_193
*1128 FILLER_0_37_205
*1129 FILLER_0_37_217
*1130 FILLER_0_37_223
*1131 FILLER_0_37_225
*1132 FILLER_0_37_237
*1133 FILLER_0_37_249
*1134 FILLER_0_37_261
*1135 FILLER_0_37_27
*1136 FILLER_0_37_273
*1137 FILLER_0_37_279
*1138 FILLER_0_37_281
*1139 FILLER_0_37_293
*1140 FILLER_0_37_3
*1141 FILLER_0_37_305
*1142 FILLER_0_37_317
*1143 FILLER_0_37_329
*1144 FILLER_0_37_39
*1145 FILLER_0_37_51
*1146 FILLER_0_37_55
*1147 FILLER_0_37_57
*1148 FILLER_0_37_69
*1149 FILLER_0_37_81
*1150 FILLER_0_37_93
*1151 FILLER_0_38_10
*1152 FILLER_0_38_102
*1153 FILLER_0_38_106
*1154 FILLER_0_38_110
*1155 FILLER_0_38_113
*1156 FILLER_0_38_118
*1157 FILLER_0_38_122
*1158 FILLER_0_38_126
*1159 FILLER_0_38_14
*1160 FILLER_0_38_141
*1161 FILLER_0_38_148
*1162 FILLER_0_38_152
*1163 FILLER_0_38_157
*1164 FILLER_0_38_164
*1165 FILLER_0_38_173
*1166 FILLER_0_38_18
*1167 FILLER_0_38_182
*1168 FILLER_0_38_189
*1169 FILLER_0_38_195
*1170 FILLER_0_38_197
*1171 FILLER_0_38_209
*1172 FILLER_0_38_22
*1173 FILLER_0_38_221
*1174 FILLER_0_38_225
*1175 FILLER_0_38_237
*1176 FILLER_0_38_249
*1177 FILLER_0_38_253
*1178 FILLER_0_38_268
*1179 FILLER_0_38_281
*1180 FILLER_0_38_286
*1181 FILLER_0_38_290
*1182 FILLER_0_38_294
*1183 FILLER_0_38_306
*1184 FILLER_0_38_309
*1185 FILLER_0_38_32
*1186 FILLER_0_38_321
*1187 FILLER_0_38_333
*1188 FILLER_0_38_38
*1189 FILLER_0_38_42
*1190 FILLER_0_38_46
*1191 FILLER_0_38_50
*1192 FILLER_0_38_54
*1193 FILLER_0_38_57
*1194 FILLER_0_38_6
*1195 FILLER_0_38_62
*1196 FILLER_0_38_66
*1197 FILLER_0_38_70
*1198 FILLER_0_38_74
*1199 FILLER_0_38_78
*1200 FILLER_0_38_88
*1201 FILLER_0_38_94
*1202 FILLER_0_38_98
*1203 FILLER_0_3_105
*1204 FILLER_0_3_111
*1205 FILLER_0_3_113
*1206 FILLER_0_3_125
*1207 FILLER_0_3_137
*1208 FILLER_0_3_149
*1209 FILLER_0_3_15
*1210 FILLER_0_3_161
*1211 FILLER_0_3_167
*1212 FILLER_0_3_169
*1213 FILLER_0_3_181
*1214 FILLER_0_3_193
*1215 FILLER_0_3_205
*1216 FILLER_0_3_217
*1217 FILLER_0_3_223
*1218 FILLER_0_3_225
*1219 FILLER_0_3_237
*1220 FILLER_0_3_249
*1221 FILLER_0_3_261
*1222 FILLER_0_3_27
*1223 FILLER_0_3_273
*1224 FILLER_0_3_279
*1225 FILLER_0_3_281
*1226 FILLER_0_3_293
*1227 FILLER_0_3_3
*1228 FILLER_0_3_305
*1229 FILLER_0_3_317
*1230 FILLER_0_3_329
*1231 FILLER_0_3_39
*1232 FILLER_0_3_51
*1233 FILLER_0_3_55
*1234 FILLER_0_3_57
*1235 FILLER_0_3_69
*1236 FILLER_0_3_81
*1237 FILLER_0_3_93
*1238 FILLER_0_4_109
*1239 FILLER_0_4_121
*1240 FILLER_0_4_133
*1241 FILLER_0_4_139
*1242 FILLER_0_4_141
*1243 FILLER_0_4_15
*1244 FILLER_0_4_153
*1245 FILLER_0_4_165
*1246 FILLER_0_4_177
*1247 FILLER_0_4_189
*1248 FILLER_0_4_195
*1249 FILLER_0_4_197
*1250 FILLER_0_4_209
*1251 FILLER_0_4_221
*1252 FILLER_0_4_233
*1253 FILLER_0_4_245
*1254 FILLER_0_4_251
*1255 FILLER_0_4_253
*1256 FILLER_0_4_265
*1257 FILLER_0_4_27
*1258 FILLER_0_4_277
*1259 FILLER_0_4_289
*1260 FILLER_0_4_29
*1261 FILLER_0_4_3
*1262 FILLER_0_4_301
*1263 FILLER_0_4_307
*1264 FILLER_0_4_309
*1265 FILLER_0_4_321
*1266 FILLER_0_4_333
*1267 FILLER_0_4_41
*1268 FILLER_0_4_53
*1269 FILLER_0_4_65
*1270 FILLER_0_4_77
*1271 FILLER_0_4_83
*1272 FILLER_0_4_85
*1273 FILLER_0_4_97
*1274 FILLER_0_5_105
*1275 FILLER_0_5_111
*1276 FILLER_0_5_113
*1277 FILLER_0_5_125
*1278 FILLER_0_5_137
*1279 FILLER_0_5_149
*1280 FILLER_0_5_15
*1281 FILLER_0_5_161
*1282 FILLER_0_5_167
*1283 FILLER_0_5_169
*1284 FILLER_0_5_181
*1285 FILLER_0_5_193
*1286 FILLER_0_5_205
*1287 FILLER_0_5_217
*1288 FILLER_0_5_223
*1289 FILLER_0_5_225
*1290 FILLER_0_5_237
*1291 FILLER_0_5_249
*1292 FILLER_0_5_261
*1293 FILLER_0_5_27
*1294 FILLER_0_5_273
*1295 FILLER_0_5_279
*1296 FILLER_0_5_281
*1297 FILLER_0_5_293
*1298 FILLER_0_5_3
*1299 FILLER_0_5_305
*1300 FILLER_0_5_317
*1301 FILLER_0_5_329
*1302 FILLER_0_5_39
*1303 FILLER_0_5_51
*1304 FILLER_0_5_55
*1305 FILLER_0_5_57
*1306 FILLER_0_5_69
*1307 FILLER_0_5_81
*1308 FILLER_0_5_93
*1309 FILLER_0_6_109
*1310 FILLER_0_6_121
*1311 FILLER_0_6_133
*1312 FILLER_0_6_139
*1313 FILLER_0_6_141
*1314 FILLER_0_6_15
*1315 FILLER_0_6_153
*1316 FILLER_0_6_165
*1317 FILLER_0_6_177
*1318 FILLER_0_6_189
*1319 FILLER_0_6_195
*1320 FILLER_0_6_197
*1321 FILLER_0_6_209
*1322 FILLER_0_6_221
*1323 FILLER_0_6_233
*1324 FILLER_0_6_245
*1325 FILLER_0_6_251
*1326 FILLER_0_6_253
*1327 FILLER_0_6_265
*1328 FILLER_0_6_27
*1329 FILLER_0_6_277
*1330 FILLER_0_6_289
*1331 FILLER_0_6_29
*1332 FILLER_0_6_3
*1333 FILLER_0_6_301
*1334 FILLER_0_6_307
*1335 FILLER_0_6_309
*1336 FILLER_0_6_321
*1337 FILLER_0_6_333
*1338 FILLER_0_6_41
*1339 FILLER_0_6_53
*1340 FILLER_0_6_65
*1341 FILLER_0_6_77
*1342 FILLER_0_6_83
*1343 FILLER_0_6_85
*1344 FILLER_0_6_97
*1345 FILLER_0_7_105
*1346 FILLER_0_7_111
*1347 FILLER_0_7_113
*1348 FILLER_0_7_125
*1349 FILLER_0_7_137
*1350 FILLER_0_7_149
*1351 FILLER_0_7_15
*1352 FILLER_0_7_161
*1353 FILLER_0_7_167
*1354 FILLER_0_7_169
*1355 FILLER_0_7_181
*1356 FILLER_0_7_193
*1357 FILLER_0_7_205
*1358 FILLER_0_7_217
*1359 FILLER_0_7_223
*1360 FILLER_0_7_225
*1361 FILLER_0_7_237
*1362 FILLER_0_7_249
*1363 FILLER_0_7_261
*1364 FILLER_0_7_27
*1365 FILLER_0_7_273
*1366 FILLER_0_7_279
*1367 FILLER_0_7_281
*1368 FILLER_0_7_293
*1369 FILLER_0_7_3
*1370 FILLER_0_7_305
*1371 FILLER_0_7_317
*1372 FILLER_0_7_329
*1373 FILLER_0_7_39
*1374 FILLER_0_7_51
*1375 FILLER_0_7_55
*1376 FILLER_0_7_57
*1377 FILLER_0_7_69
*1378 FILLER_0_7_81
*1379 FILLER_0_7_93
*1380 FILLER_0_8_109
*1381 FILLER_0_8_121
*1382 FILLER_0_8_133
*1383 FILLER_0_8_139
*1384 FILLER_0_8_141
*1385 FILLER_0_8_15
*1386 FILLER_0_8_153
*1387 FILLER_0_8_165
*1388 FILLER_0_8_177
*1389 FILLER_0_8_189
*1390 FILLER_0_8_195
*1391 FILLER_0_8_197
*1392 FILLER_0_8_209
*1393 FILLER_0_8_221
*1394 FILLER_0_8_233
*1395 FILLER_0_8_245
*1396 FILLER_0_8_251
*1397 FILLER_0_8_253
*1398 FILLER_0_8_265
*1399 FILLER_0_8_27
*1400 FILLER_0_8_277
*1401 FILLER_0_8_289
*1402 FILLER_0_8_29
*1403 FILLER_0_8_3
*1404 FILLER_0_8_301
*1405 FILLER_0_8_307
*1406 FILLER_0_8_309
*1407 FILLER_0_8_321
*1408 FILLER_0_8_333
*1409 FILLER_0_8_41
*1410 FILLER_0_8_53
*1411 FILLER_0_8_65
*1412 FILLER_0_8_77
*1413 FILLER_0_8_83
*1414 FILLER_0_8_85
*1415 FILLER_0_8_97
*1416 FILLER_0_9_105
*1417 FILLER_0_9_111
*1418 FILLER_0_9_113
*1419 FILLER_0_9_125
*1420 FILLER_0_9_137
*1421 FILLER_0_9_149
*1422 FILLER_0_9_15
*1423 FILLER_0_9_161
*1424 FILLER_0_9_167
*1425 FILLER_0_9_169
*1426 FILLER_0_9_181
*1427 FILLER_0_9_193
*1428 FILLER_0_9_205
*1429 FILLER_0_9_217
*1430 FILLER_0_9_223
*1431 FILLER_0_9_225
*1432 FILLER_0_9_237
*1433 FILLER_0_9_249
*1434 FILLER_0_9_261
*1435 FILLER_0_9_27
*1436 FILLER_0_9_273
*1437 FILLER_0_9_279
*1438 FILLER_0_9_281
*1439 FILLER_0_9_293
*1440 FILLER_0_9_3
*1441 FILLER_0_9_305
*1442 FILLER_0_9_317
*1443 FILLER_0_9_329
*1444 FILLER_0_9_39
*1445 FILLER_0_9_51
*1446 FILLER_0_9_55
*1447 FILLER_0_9_57
*1448 FILLER_0_9_69
*1449 FILLER_0_9_81
*1450 FILLER_0_9_93
*1451 PHY_EDGE_ROW_0_Left_39
*1452 PHY_EDGE_ROW_0_Right_0
*1453 PHY_EDGE_ROW_10_Left_49