*SPEF "ieee 1481-1999"
*DESIGN "tt_um_wokwi_392873974467527681"
*DATE "11:11:11 Fri 11 11, 1111"
*VENDOR "OpenRCX"
*PROGRAM "Parallel Extraction"
*VERSION "1.0"
*DESIGN_FLOW "NAME_SCOPE LOCAL" "PIN_CAP NONE"
*DIVIDER /
*DELIMITER :
*BUS_DELIMITER []
*T_UNIT 1 NS
*C_UNIT 1 PF
*R_UNIT 1 OHM
*L_UNIT 1 HENRY

*NAME_MAP
*3 clk
*4 ena
*5 rst_n
*6 ui_in[0]
*7 ui_in[1]
*8 ui_in[2]
*9 ui_in[3]
*10 ui_in[4]
*11 ui_in[5]
*12 ui_in[6]
*13 ui_in[7]
*14 uio_in[0]
*15 uio_in[1]
*16 uio_in[2]
*17 uio_in[3]
*18 uio_in[4]
*19 uio_in[5]
*20 uio_in[6]
*21 uio_in[7]
*22 net7
*23 net8
*24 net9
*25 net10
*26 net11
*27 net12
*28 net13
*29 net14
*30 net15
*31 net16
*32 net17
*33 net18
*34 net19
*35 net20
*36 net21
*37 net22
*38 uo_out[0]
*39 uo_out[1]
*40 uo_out[2]
*41 uo_out[3]
*42 uo_out[4]
*43 uo_out[5]
*44 uo_out[6]
*45 uo_out[7]
*46 _00_
*47 _01_
*48 _02_
*49 _03_
*50 _04_
*51 _05_
*52 _06_
*53 _07_
*54 _08_
*55 _09_
*56 _10_
*57 _11_
*58 _12_
*59 _13_
*60 _14_
*61 and12\.a
*62 clknet_0_clk
*63 clknet_1_0__leaf_clk
*64 clknet_1_1__leaf_clk
*65 flipflop1\.d
*66 flipflop1\.q
*67 flipflop2\.clk
*68 flipflop2\.d
*69 flipflop2\.q
*70 flipflop3\.clk
*71 flipflop3\.d
*72 flipflop3\.q
*73 flipflop5\.clk
*74 flipflop5\.d
*75 flipflop5\.q
*76 flipflop6\.d
*77 flipflop6\.q
*78 gate20\.out
*79 net1
*80 net2
*81 net23
*82 net24
*83 net25
*84 net26
*85 net3
*86 net4
*87 net5
*88 net6
*89 or1\.out
*90 or2\.out
*91 or3\.out
*92 or4\.out
*93 or7\.out
*94 or8\.out
*95 FILLER_0_0_109
*96 FILLER_0_0_113
*97 FILLER_0_0_125
*98 FILLER_0_0_137
*99 FILLER_0_0_141
*100 FILLER_0_0_15
*101 FILLER_0_0_153
*102 FILLER_0_0_165
*103 FILLER_0_0_169
*104 FILLER_0_0_181
*105 FILLER_0_0_193
*106 FILLER_0_0_197
*107 FILLER_0_0_209
*108 FILLER_0_0_221
*109 FILLER_0_0_225
*110 FILLER_0_0_237
*111 FILLER_0_0_249
*112 FILLER_0_0_253
*113 FILLER_0_0_265
*114 FILLER_0_0_27
*115 FILLER_0_0_277
*116 FILLER_0_0_281
*117 FILLER_0_0_29
*118 FILLER_0_0_293
*119 FILLER_0_0_3
*120 FILLER_0_0_305
*121 FILLER_0_0_309
*122 FILLER_0_0_321
*123 FILLER_0_0_333
*124 FILLER_0_0_41
*125 FILLER_0_0_53
*126 FILLER_0_0_57
*127 FILLER_0_0_69
*128 FILLER_0_0_81
*129 FILLER_0_0_85
*130 FILLER_0_0_97
*131 FILLER_0_10_109
*132 FILLER_0_10_121
*133 FILLER_0_10_133
*134 FILLER_0_10_139
*135 FILLER_0_10_141
*136 FILLER_0_10_15
*137 FILLER_0_10_153
*138 FILLER_0_10_165
*139 FILLER_0_10_177
*140 FILLER_0_10_189
*141 FILLER_0_10_195
*142 FILLER_0_10_197
*143 FILLER_0_10_209
*144 FILLER_0_10_221
*145 FILLER_0_10_233
*146 FILLER_0_10_245
*147 FILLER_0_10_251
*148 FILLER_0_10_253
*149 FILLER_0_10_265
*150 FILLER_0_10_27
*151 FILLER_0_10_277
*152 FILLER_0_10_289
*153 FILLER_0_10_29
*154 FILLER_0_10_3
*155 FILLER_0_10_301
*156 FILLER_0_10_307
*157 FILLER_0_10_309
*158 FILLER_0_10_321
*159 FILLER_0_10_333
*160 FILLER_0_10_41
*161 FILLER_0_10_53
*162 FILLER_0_10_65
*163 FILLER_0_10_77
*164 FILLER_0_10_83
*165 FILLER_0_10_85
*166 FILLER_0_10_97
*167 FILLER_0_11_105
*168 FILLER_0_11_111
*169 FILLER_0_11_113
*170 FILLER_0_11_125
*171 FILLER_0_11_137
*172 FILLER_0_11_149
*173 FILLER_0_11_15
*174 FILLER_0_11_161
*175 FILLER_0_11_167
*176 FILLER_0_11_169
*177 FILLER_0_11_181
*178 FILLER_0_11_193
*179 FILLER_0_11_205
*180 FILLER_0_11_217
*181 FILLER_0_11_223
*182 FILLER_0_11_225
*183 FILLER_0_11_237
*184 FILLER_0_11_249
*185 FILLER_0_11_261
*186 FILLER_0_11_27
*187 FILLER_0_11_273
*188 FILLER_0_11_279
*189 FILLER_0_11_281
*190 FILLER_0_11_293
*191 FILLER_0_11_3
*192 FILLER_0_11_305
*193 FILLER_0_11_317
*194 FILLER_0_11_329
*195 FILLER_0_11_39
*196 FILLER_0_11_51
*197 FILLER_0_11_55
*198 FILLER_0_11_57
*199 FILLER_0_11_69
*200 FILLER_0_11_81
*201 FILLER_0_11_93
*202 FILLER_0_12_109
*203 FILLER_0_12_121
*204 FILLER_0_12_133
*205 FILLER_0_12_139
*206 FILLER_0_12_141
*207 FILLER_0_12_15
*208 FILLER_0_12_153
*209 FILLER_0_12_165
*210 FILLER_0_12_177
*211 FILLER_0_12_189
*212 FILLER_0_12_195
*213 FILLER_0_12_197
*214 FILLER_0_12_209
*215 FILLER_0_12_221
*216 FILLER_0_12_233
*217 FILLER_0_12_245
*218 FILLER_0_12_251
*219 FILLER_0_12_253
*220 FILLER_0_12_265
*221 FILLER_0_12_27
*222 FILLER_0_12_277
*223 FILLER_0_12_289
*224 FILLER_0_12_29
*225 FILLER_0_12_3
*226 FILLER_0_12_301
*227 FILLER_0_12_307
*228 FILLER_0_12_309
*229 FILLER_0_12_321
*230 FILLER_0_12_333
*231 FILLER_0_12_41
*232 FILLER_0_12_53
*233 FILLER_0_12_65
*234 FILLER_0_12_77
*235 FILLER_0_12_83
*236 FILLER_0_12_85
*237 FILLER_0_12_97
*238 FILLER_0_13_105
*239 FILLER_0_13_111
*240 FILLER_0_13_113
*241 FILLER_0_13_125
*242 FILLER_0_13_137
*243 FILLER_0_13_149
*244 FILLER_0_13_15
*245 FILLER_0_13_161
*246 FILLER_0_13_167
*247 FILLER_0_13_169
*248 FILLER_0_13_181
*249 FILLER_0_13_193
*250 FILLER_0_13_205
*251 FILLER_0_13_217
*252 FILLER_0_13_223
*253 FILLER_0_13_225
*254 FILLER_0_13_237
*255 FILLER_0_13_249
*256 FILLER_0_13_261
*257 FILLER_0_13_27
*258 FILLER_0_13_273
*259 FILLER_0_13_279
*260 FILLER_0_13_281
*261 FILLER_0_13_293
*262 FILLER_0_13_3
*263 FILLER_0_13_305
*264 FILLER_0_13_317
*265 FILLER_0_13_329
*266 FILLER_0_13_39
*267 FILLER_0_13_51
*268 FILLER_0_13_55
*269 FILLER_0_13_57
*270 FILLER_0_13_69
*271 FILLER_0_13_81
*272 FILLER_0_13_93
*273 FILLER_0_14_109
*274 FILLER_0_14_121
*275 FILLER_0_14_133
*276 FILLER_0_14_139
*277 FILLER_0_14_141
*278 FILLER_0_14_15
*279 FILLER_0_14_153
*280 FILLER_0_14_165
*281 FILLER_0_14_177
*282 FILLER_0_14_189
*283 FILLER_0_14_195
*284 FILLER_0_14_197
*285 FILLER_0_14_209
*286 FILLER_0_14_221
*287 FILLER_0_14_233
*288 FILLER_0_14_245
*289 FILLER_0_14_251
*290 FILLER_0_14_253
*291 FILLER_0_14_265
*292 FILLER_0_14_27
*293 FILLER_0_14_277
*294 FILLER_0_14_289
*295 FILLER_0_14_29
*296 FILLER_0_14_3
*297 FILLER_0_14_301
*298 FILLER_0_14_307
*299 FILLER_0_14_309
*300 FILLER_0_14_321
*301 FILLER_0_14_333
*302 FILLER_0_14_41
*303 FILLER_0_14_53
*304 FILLER_0_14_65
*305 FILLER_0_14_77
*306 FILLER_0_14_83
*307 FILLER_0_14_85
*308 FILLER_0_14_97
*309 FILLER_0_15_105
*310 FILLER_0_15_111
*311 FILLER_0_15_113
*312 FILLER_0_15_125
*313 FILLER_0_15_137
*314 FILLER_0_15_149
*315 FILLER_0_15_15
*316 FILLER_0_15_161
*317 FILLER_0_15_167
*318 FILLER_0_15_169
*319 FILLER_0_15_181
*320 FILLER_0_15_193
*321 FILLER_0_15_205
*322 FILLER_0_15_217
*323 FILLER_0_15_223
*324 FILLER_0_15_225
*325 FILLER_0_15_237
*326 FILLER_0_15_249
*327 FILLER_0_15_261
*328 FILLER_0_15_27
*329 FILLER_0_15_273
*330 FILLER_0_15_279
*331 FILLER_0_15_281
*332 FILLER_0_15_293
*333 FILLER_0_15_3
*334 FILLER_0_15_305
*335 FILLER_0_15_317
*336 FILLER_0_15_329
*337 FILLER_0_15_39
*338 FILLER_0_15_51
*339 FILLER_0_15_55
*340 FILLER_0_15_57
*341 FILLER_0_15_69
*342 FILLER_0_15_81
*343 FILLER_0_15_93
*344 FILLER_0_16_109
*345 FILLER_0_16_121
*346 FILLER_0_16_133
*347 FILLER_0_16_139
*348 FILLER_0_16_141
*349 FILLER_0_16_15
*350 FILLER_0_16_153
*351 FILLER_0_16_165
*352 FILLER_0_16_177
*353 FILLER_0_16_189
*354 FILLER_0_16_195
*355 FILLER_0_16_197
*356 FILLER_0_16_209
*357 FILLER_0_16_221
*358 FILLER_0_16_233
*359 FILLER_0_16_245
*360 FILLER_0_16_251
*361 FILLER_0_16_253
*362 FILLER_0_16_265
*363 FILLER_0_16_27
*364 FILLER_0_16_277
*365 FILLER_0_16_289
*366 FILLER_0_16_29
*367 FILLER_0_16_3
*368 FILLER_0_16_301
*369 FILLER_0_16_307
*370 FILLER_0_16_309
*371 FILLER_0_16_321
*372 FILLER_0_16_333
*373 FILLER_0_16_41
*374 FILLER_0_16_53
*375 FILLER_0_16_65
*376 FILLER_0_16_77
*377 FILLER_0_16_83
*378 FILLER_0_16_85
*379 FILLER_0_16_97
*380 FILLER_0_17_105
*381 FILLER_0_17_111
*382 FILLER_0_17_113
*383 FILLER_0_17_125
*384 FILLER_0_17_137
*385 FILLER_0_17_149
*386 FILLER_0_17_15
*387 FILLER_0_17_161
*388 FILLER_0_17_167
*389 FILLER_0_17_169
*390 FILLER_0_17_181
*391 FILLER_0_17_193
*392 FILLER_0_17_205
*393 FILLER_0_17_217
*394 FILLER_0_17_223
*395 FILLER_0_17_225
*396 FILLER_0_17_237
*397 FILLER_0_17_249
*398 FILLER_0_17_261
*399 FILLER_0_17_27
*400 FILLER_0_17_273
*401 FILLER_0_17_279
*402 FILLER_0_17_281
*403 FILLER_0_17_293
*404 FILLER_0_17_3
*405 FILLER_0_17_305
*406 FILLER_0_17_317
*407 FILLER_0_17_329
*408 FILLER_0_17_39
*409 FILLER_0_17_51
*410 FILLER_0_17_55
*411 FILLER_0_17_57
*412 FILLER_0_17_69
*413 FILLER_0_17_81
*414 FILLER_0_17_93
*415 FILLER_0_18_109
*416 FILLER_0_18_121
*417 FILLER_0_18_133
*418 FILLER_0_18_139
*419 FILLER_0_18_141
*420 FILLER_0_18_15
*421 FILLER_0_18_153
*422 FILLER_0_18_165
*423 FILLER_0_18_177
*424 FILLER_0_18_189
*425 FILLER_0_18_195
*426 FILLER_0_18_197
*427 FILLER_0_18_209
*428 FILLER_0_18_221
*429 FILLER_0_18_233
*430 FILLER_0_18_245
*431 FILLER_0_18_251
*432 FILLER_0_18_253
*433 FILLER_0_18_265
*434 FILLER_0_18_27
*435 FILLER_0_18_277
*436 FILLER_0_18_289
*437 FILLER_0_18_29
*438 FILLER_0_18_3
*439 FILLER_0_18_301
*440 FILLER_0_18_307
*441 FILLER_0_18_309
*442 FILLER_0_18_321
*443 FILLER_0_18_333
*444 FILLER_0_18_41
*445 FILLER_0_18_53
*446 FILLER_0_18_65
*447 FILLER_0_18_77
*448 FILLER_0_18_83
*449 FILLER_0_18_85
*450 FILLER_0_18_97
*451 FILLER_0_19_105
*452 FILLER_0_19_111
*453 FILLER_0_19_113
*454 FILLER_0_19_125
*455 FILLER_0_19_137
*456 FILLER_0_19_149
*457 FILLER_0_19_15
*458 FILLER_0_19_161
*459 FILLER_0_19_167
*460 FILLER_0_19_169
*461 FILLER_0_19_181
*462 FILLER_0_19_193
*463 FILLER_0_19_205
*464 FILLER_0_19_217
*465 FILLER_0_19_223
*466 FILLER_0_19_225
*467 FILLER_0_19_237
*468 FILLER_0_19_249
*469 FILLER_0_19_261
*470 FILLER_0_19_27
*471 FILLER_0_19_273
*472 FILLER_0_19_279
*473 FILLER_0_19_281
*474 FILLER_0_19_293
*475 FILLER_0_19_3
*476 FILLER_0_19_305
*477 FILLER_0_19_317
*478 FILLER_0_19_329
*479 FILLER_0_19_39
*480 FILLER_0_19_51
*481 FILLER_0_19_55
*482 FILLER_0_19_57
*483 FILLER_0_19_69
*484 FILLER_0_19_81
*485 FILLER_0_19_93
*486 FILLER_0_1_105
*487 FILLER_0_1_111
*488 FILLER_0_1_113
*489 FILLER_0_1_125
*490 FILLER_0_1_137
*491 FILLER_0_1_149
*492 FILLER_0_1_15
*493 FILLER_0_1_161
*494 FILLER_0_1_167
*495 FILLER_0_1_169
*496 FILLER_0_1_181
*497 FILLER_0_1_193
*498 FILLER_0_1_205
*499 FILLER_0_1_217
*500 FILLER_0_1_223
*501 FILLER_0_1_225
*502 FILLER_0_1_237
*503 FILLER_0_1_249
*504 FILLER_0_1_261
*505 FILLER_0_1_27
*506 FILLER_0_1_273
*507 FILLER_0_1_279
*508 FILLER_0_1_281
*509 FILLER_0_1_293
*510 FILLER_0_1_3
*511 FILLER_0_1_305
*512 FILLER_0_1_317
*513 FILLER_0_1_329
*514 FILLER_0_1_39
*515 FILLER_0_1_51
*516 FILLER_0_1_55
*517 FILLER_0_1_57
*518 FILLER_0_1_69
*519 FILLER_0_1_81
*520 FILLER_0_1_93
*521 FILLER_0_20_109
*522 FILLER_0_20_121
*523 FILLER_0_20_133
*524 FILLER_0_20_139
*525 FILLER_0_20_141
*526 FILLER_0_20_15
*527 FILLER_0_20_153
*528 FILLER_0_20_165
*529 FILLER_0_20_177
*530 FILLER_0_20_189
*531 FILLER_0_20_195
*532 FILLER_0_20_197
*533 FILLER_0_20_209
*534 FILLER_0_20_221
*535 FILLER_0_20_233
*536 FILLER_0_20_245
*537 FILLER_0_20_251
*538 FILLER_0_20_253
*539 FILLER_0_20_265
*540 FILLER_0_20_27
*541 FILLER_0_20_277
*542 FILLER_0_20_289
*543 FILLER_0_20_29
*544 FILLER_0_20_3
*545 FILLER_0_20_301
*546 FILLER_0_20_307
*547 FILLER_0_20_309
*548 FILLER_0_20_321
*549 FILLER_0_20_333
*550 FILLER_0_20_41
*551 FILLER_0_20_53
*552 FILLER_0_20_65
*553 FILLER_0_20_77
*554 FILLER_0_20_83
*555 FILLER_0_20_85
*556 FILLER_0_20_97
*557 FILLER_0_21_105
*558 FILLER_0_21_111
*559 FILLER_0_21_113
*560 FILLER_0_21_125
*561 FILLER_0_21_137
*562 FILLER_0_21_149
*563 FILLER_0_21_15
*564 FILLER_0_21_161
*565 FILLER_0_21_167
*566 FILLER_0_21_169
*567 FILLER_0_21_181
*568 FILLER_0_21_193
*569 FILLER_0_21_205
*570 FILLER_0_21_217
*571 FILLER_0_21_223
*572 FILLER_0_21_225
*573 FILLER_0_21_237
*574 FILLER_0_21_249
*575 FILLER_0_21_261
*576 FILLER_0_21_27
*577 FILLER_0_21_273
*578 FILLER_0_21_279
*579 FILLER_0_21_281
*580 FILLER_0_21_293
*581 FILLER_0_21_3
*582 FILLER_0_21_305
*583 FILLER_0_21_317
*584 FILLER_0_21_329
*585 FILLER_0_21_39
*586 FILLER_0_21_51
*587 FILLER_0_21_55
*588 FILLER_0_21_57
*589 FILLER_0_21_69
*590 FILLER_0_21_81
*591 FILLER_0_21_93
*592 FILLER_0_22_109
*593 FILLER_0_22_121
*594 FILLER_0_22_133
*595 FILLER_0_22_139
*596 FILLER_0_22_141
*597 FILLER_0_22_15
*598 FILLER_0_22_153
*599 FILLER_0_22_165
*600 FILLER_0_22_177
*601 FILLER_0_22_189
*602 FILLER_0_22_195
*603 FILLER_0_22_197
*604 FILLER_0_22_209
*605 FILLER_0_22_221
*606 FILLER_0_22_233
*607 FILLER_0_22_245
*608 FILLER_0_22_251
*609 FILLER_0_22_253
*610 FILLER_0_22_265
*611 FILLER_0_22_27
*612 FILLER_0_22_277
*613 FILLER_0_22_289
*614 FILLER_0_22_29
*615 FILLER_0_22_3
*616 FILLER_0_22_301
*617 FILLER_0_22_307
*618 FILLER_0_22_309
*619 FILLER_0_22_321
*620 FILLER_0_22_333
*621 FILLER_0_22_41
*622 FILLER_0_22_53
*623 FILLER_0_22_65
*624 FILLER_0_22_77
*625 FILLER_0_22_83
*626 FILLER_0_22_85
*627 FILLER_0_22_97
*628 FILLER_0_23_105
*629 FILLER_0_23_111
*630 FILLER_0_23_113
*631 FILLER_0_23_125
*632 FILLER_0_23_137
*633 FILLER_0_23_149
*634 FILLER_0_23_15
*635 FILLER_0_23_161
*636 FILLER_0_23_167
*637 FILLER_0_23_169
*638 FILLER_0_23_181
*639 FILLER_0_23_193
*640 FILLER_0_23_205
*641 FILLER_0_23_217
*642 FILLER_0_23_223
*643 FILLER_0_23_225
*644 FILLER_0_23_237
*645 FILLER_0_23_249
*646 FILLER_0_23_261
*647 FILLER_0_23_27
*648 FILLER_0_23_273
*649 FILLER_0_23_279
*650 FILLER_0_23_281
*651 FILLER_0_23_293
*652 FILLER_0_23_3
*653 FILLER_0_23_305
*654 FILLER_0_23_317
*655 FILLER_0_23_329
*656 FILLER_0_23_39
*657 FILLER_0_23_51
*658 FILLER_0_23_55
*659 FILLER_0_23_57
*660 FILLER_0_23_69
*661 FILLER_0_23_81
*662 FILLER_0_23_93
*663 FILLER_0_24_109
*664 FILLER_0_24_121
*665 FILLER_0_24_133
*666 FILLER_0_24_139
*667 FILLER_0_24_141
*668 FILLER_0_24_15
*669 FILLER_0_24_153
*670 FILLER_0_24_165
*671 FILLER_0_24_177
*672 FILLER_0_24_189
*673 FILLER_0_24_195
*674 FILLER_0_24_197
*675 FILLER_0_24_209
*676 FILLER_0_24_221
*677 FILLER_0_24_233
*678 FILLER_0_24_245
*679 FILLER_0_24_251
*680 FILLER_0_24_253
*681 FILLER_0_24_265
*682 FILLER_0_24_27
*683 FILLER_0_24_277
*684 FILLER_0_24_289
*685 FILLER_0_24_29
*686 FILLER_0_24_3
*687 FILLER_0_24_301
*688 FILLER_0_24_307
*689 FILLER_0_24_309
*690 FILLER_0_24_321
*691 FILLER_0_24_333
*692 FILLER_0_24_41
*693 FILLER_0_24_53
*694 FILLER_0_24_65
*695 FILLER_0_24_77
*696 FILLER_0_24_83
*697 FILLER_0_24_85
*698 FILLER_0_24_97
*699 FILLER_0_25_105
*700 FILLER_0_25_111
*701 FILLER_0_25_113
*702 FILLER_0_25_125
*703 FILLER_0_25_137
*704 FILLER_0_25_149
*705 FILLER_0_25_15
*706 FILLER_0_25_161
*707 FILLER_0_25_167
*708 FILLER_0_25_169
*709 FILLER_0_25_181
*710 FILLER_0_25_193
*711 FILLER_0_25_205
*712 FILLER_0_25_217
*713 FILLER_0_25_223
*714 FILLER_0_25_225
*715 FILLER_0_25_237
*716 FILLER_0_25_249
*717 FILLER_0_25_261
*718 FILLER_0_25_27
*719 FILLER_0_25_273
*720 FILLER_0_25_279
*721 FILLER_0_25_281
*722 FILLER_0_25_293
*723 FILLER_0_25_3
*724 FILLER_0_25_305
*725 FILLER_0_25_317
*726 FILLER_0_25_329
*727 FILLER_0_25_39
*728 FILLER_0_25_51
*729 FILLER_0_25_55
*730 FILLER_0_25_57
*731 FILLER_0_25_69
*732 FILLER_0_25_81
*733 FILLER_0_25_93
*734 FILLER_0_26_109
*735 FILLER_0_26_121
*736 FILLER_0_26_133
*737 FILLER_0_26_139
*738 FILLER_0_26_141
*739 FILLER_0_26_15
*740 FILLER_0_26_153
*741 FILLER_0_26_165
*742 FILLER_0_26_177
*743 FILLER_0_26_189
*744 FILLER_0_26_195
*745 FILLER_0_26_197
*746 FILLER_0_26_209
*747 FILLER_0_26_221
*748 FILLER_0_26_233
*749 FILLER_0_26_245
*750 FILLER_0_26_251
*751 FILLER_0_26_253
*752 FILLER_0_26_265
*753 FILLER_0_26_27
*754 FILLER_0_26_277
*755 FILLER_0_26_289
*756 FILLER_0_26_29
*757 FILLER_0_26_3
*758 FILLER_0_26_301
*759 FILLER_0_26_307
*760 FILLER_0_26_309
*761 FILLER_0_26_321
*762 FILLER_0_26_333
*763 FILLER_0_26_41
*764 FILLER_0_26_53
*765 FILLER_0_26_65
*766 FILLER_0_26_77
*767 FILLER_0_26_83
*768 FILLER_0_26_85
*769 FILLER_0_26_97
*770 FILLER_0_27_105
*771 FILLER_0_27_111
*772 FILLER_0_27_113
*773 FILLER_0_27_125
*774 FILLER_0_27_137
*775 FILLER_0_27_149
*776 FILLER_0_27_15
*777 FILLER_0_27_161
*778 FILLER_0_27_167
*779 FILLER_0_27_169
*780 FILLER_0_27_181
*781 FILLER_0_27_193
*782 FILLER_0_27_205
*783 FILLER_0_27_217
*784 FILLER_0_27_223
*785 FILLER_0_27_225
*786 FILLER_0_27_237
*787 FILLER_0_27_249
*788 FILLER_0_27_261
*789 FILLER_0_27_27
*790 FILLER_0_27_273
*791 FILLER_0_27_279
*792 FILLER_0_27_281
*793 FILLER_0_27_293
*794 FILLER_0_27_3
*795 FILLER_0_27_305
*796 FILLER_0_27_317
*797 FILLER_0_27_329
*798 FILLER_0_27_39
*799 FILLER_0_27_51
*800 FILLER_0_27_55
*801 FILLER_0_27_57
*802 FILLER_0_27_69
*803 FILLER_0_27_81
*804 FILLER_0_27_93
*805 FILLER_0_28_109
*806 FILLER_0_28_121
*807 FILLER_0_28_133
*808 FILLER_0_28_139
*809 FILLER_0_28_141
*810 FILLER_0_28_15
*811 FILLER_0_28_153
*812 FILLER_0_28_165
*813 FILLER_0_28_177
*814 FILLER_0_28_189
*815 FILLER_0_28_195
*816 FILLER_0_28_197
*817 FILLER_0_28_209
*818 FILLER_0_28_221
*819 FILLER_0_28_233
*820 FILLER_0_28_245
*821 FILLER_0_28_251
*822 FILLER_0_28_253
*823 FILLER_0_28_265
*824 FILLER_0_28_27
*825 FILLER_0_28_277
*826 FILLER_0_28_289
*827 FILLER_0_28_29
*828 FILLER_0_28_3
*829 FILLER_0_28_301
*830 FILLER_0_28_307
*831 FILLER_0_28_309
*832 FILLER_0_28_321
*833 FILLER_0_28_333
*834 FILLER_0_28_41
*835 FILLER_0_28_53
*836 FILLER_0_28_65
*837 FILLER_0_28_77
*838 FILLER_0_28_83
*839 FILLER_0_28_85
*840 FILLER_0_28_97
*841 FILLER_0_29_105
*842 FILLER_0_29_111
*843 FILLER_0_29_113
*844 FILLER_0_29_125
*845 FILLER_0_29_137
*846 FILLER_0_29_149
*847 FILLER_0_29_15
*848 FILLER_0_29_161
*849 FILLER_0_29_167
*850 FILLER_0_29_169
*851 FILLER_0_29_181
*852 FILLER_0_29_193
*853 FILLER_0_29_205
*854 FILLER_0_29_217
*855 FILLER_0_29_223
*856 FILLER_0_29_225
*857 FILLER_0_29_237
*858 FILLER_0_29_249
*859 FILLER_0_29_261
*860 FILLER_0_29_27
*861 FILLER_0_29_273
*862 FILLER_0_29_279
*863 FILLER_0_29_281
*864 FILLER_0_29_293
*865 FILLER_0_29_3
*866 FILLER_0_29_305
*867 FILLER_0_29_317
*868 FILLER_0_29_329
*869 FILLER_0_29_39
*870 FILLER_0_29_51
*871 FILLER_0_29_55
*872 FILLER_0_29_57
*873 FILLER_0_29_69
*874 FILLER_0_29_81
*875 FILLER_0_29_93
*876 FILLER_0_2_109
*877 FILLER_0_2_121
*878 FILLER_0_2_133
*879 FILLER_0_2_139
*880 FILLER_0_2_141
*881 FILLER_0_2_15
*882 FILLER_0_2_153
*883 FILLER_0_2_165
*884 FILLER_0_2_177
*885 FILLER_0_2_189
*886 FILLER_0_2_195
*887 FILLER_0_2_197
*888 FILLER_0_2_209
*889 FILLER_0_2_221
*890 FILLER_0_2_233
*891 FILLER_0_2_245
*892 FILLER_0_2_251
*893 FILLER_0_2_253
*894 FILLER_0_2_265
*895 FILLER_0_2_27
*896 FILLER_0_2_277
*897 FILLER_0_2_289
*898 FILLER_0_2_29
*899 FILLER_0_2_3
*900 FILLER_0_2_301
*901 FILLER_0_2_307
*902 FILLER_0_2_309
*903 FILLER_0_2_321
*904 FILLER_0_2_333
*905 FILLER_0_2_41
*906 FILLER_0_2_53
*907 FILLER_0_2_65
*908 FILLER_0_2_77
*909 FILLER_0_2_83
*910 FILLER_0_2_85
*911 FILLER_0_2_97
*912 FILLER_0_30_109
*913 FILLER_0_30_121
*914 FILLER_0_30_133
*915 FILLER_0_30_139
*916 FILLER_0_30_141
*917 FILLER_0_30_15
*918 FILLER_0_30_153
*919 FILLER_0_30_165
*920 FILLER_0_30_177
*921 FILLER_0_30_189
*922 FILLER_0_30_195
*923 FILLER_0_30_197
*924 FILLER_0_30_209
*925 FILLER_0_30_221
*926 FILLER_0_30_233
*927 FILLER_0_30_245
*928 FILLER_0_30_251
*929 FILLER_0_30_253
*930 FILLER_0_30_265
*931 FILLER_0_30_27
*932 FILLER_0_30_277
*933 FILLER_0_30_289
*934 FILLER_0_30_29
*935 FILLER_0_30_3
*936 FILLER_0_30_301
*937 FILLER_0_30_307
*938 FILLER_0_30_309
*939 FILLER_0_30_321
*940 FILLER_0_30_333
*941 FILLER_0_30_41
*942 FILLER_0_30_53
*943 FILLER_0_30_65
*944 FILLER_0_30_77
*945 FILLER_0_30_83
*946 FILLER_0_30_85
*947 FILLER_0_30_97
*948 FILLER_0_31_105
*949 FILLER_0_31_111
*950 FILLER_0_31_113
*951 FILLER_0_31_125
*952 FILLER_0_31_137
*953 FILLER_0_31_149
*954 FILLER_0_31_15
*955 FILLER_0_31_161
*956 FILLER_0_31_167
*957 FILLER_0_31_169
*958 FILLER_0_31_181
*959 FILLER_0_31_193
*960 FILLER_0_31_205
*961 FILLER_0_31_217
*962 FILLER_0_31_223
*963 FILLER_0_31_225
*964 FILLER_0_31_237
*965 FILLER_0_31_249
*966 FILLER_0_31_261
*967 FILLER_0_31_27
*968 FILLER_0_31_273
*969 FILLER_0_31_279
*970 FILLER_0_31_281
*971 FILLER_0_31_293
*972 FILLER_0_31_3
*973 FILLER_0_31_305
*974 FILLER_0_31_317
*975 FILLER_0_31_329
*976 FILLER_0_31_39
*977 FILLER_0_31_51
*978 FILLER_0_31_55
*979 FILLER_0_31_57
*980 FILLER_0_31_69
*981 FILLER_0_31_81
*982 FILLER_0_31_93
*983 FILLER_0_32_109
*984 FILLER_0_32_121
*985 FILLER_0_32_133
*986 FILLER_0_32_139
*987 FILLER_0_32_141
*988 FILLER_0_32_15
*989 FILLER_0_32_153
*990 FILLER_0_32_165
*991 FILLER_0_32_177
*992 FILLER_0_32_189
*993 FILLER_0_32_195
*994 FILLER_0_32_197
*995 FILLER_0_32_209
*996 FILLER_0_32_221
*997 FILLER_0_32_233
*998 FILLER_0_32_245
*999 FILLER_0_32_251
*1000 FILLER_0_32_253
*1001 FILLER_0_32_265
*1002 FILLER_0_32_27
*1003 FILLER_0_32_277
*1004 FILLER_0_32_289
*1005 FILLER_0_32_29
*1006 FILLER_0_32_3
*1007 FILLER_0_32_301
*1008 FILLER_0_32_307
*1009 FILLER_0_32_309
*1010 FILLER_0_32_321
*1011 FILLER_0_32_333
*1012 FILLER_0_32_41
*1013 FILLER_0_32_53
*1014 FILLER_0_32_65
*1015 FILLER_0_32_77
*1016 FILLER_0_32_83
*1017 FILLER_0_32_85
*1018 FILLER_0_32_97
*1019 FILLER_0_33_105
*1020 FILLER_0_33_111
*1021 FILLER_0_33_113
*1022 FILLER_0_33_125
*1023 FILLER_0_33_137
*1024 FILLER_0_33_149
*1025 FILLER_0_33_15
*1026 FILLER_0_33_161
*1027 FILLER_0_33_167
*1028 FILLER_0_33_169
*1029 FILLER_0_33_181
*1030 FILLER_0_33_193
*1031 FILLER_0_33_205
*1032 FILLER_0_33_217
*1033 FILLER_0_33_223
*1034 FILLER_0_33_225
*1035 FILLER_0_33_237
*1036 FILLER_0_33_249
*1037 FILLER_0_33_261
*1038 FILLER_0_33_27
*1039 FILLER_0_33_273
*1040 FILLER_0_33_279
*1041 FILLER_0_33_281
*1042 FILLER_0_33_293
*1043 FILLER_0_33_3
*1044 FILLER_0_33_305
*1045 FILLER_0_33_317
*1046 FILLER_0_33_329
*1047 FILLER_0_33_39
*1048 FILLER_0_33_51
*1049 FILLER_0_33_55
*1050 FILLER_0_33_57
*1051 FILLER_0_33_69
*1052 FILLER_0_33_81
*1053 FILLER_0_33_93
*1054 FILLER_0_34_109
*1055 FILLER_0_34_121
*1056 FILLER_0_34_133
*1057 FILLER_0_34_139
*1058 FILLER_0_34_141
*1059 FILLER_0_34_15
*1060 FILLER_0_34_153
*1061 FILLER_0_34_165
*1062 FILLER_0_34_177
*1063 FILLER_0_34_189
*1064 FILLER_0_34_195
*1065 FILLER_0_34_197
*1066 FILLER_0_34_209
*1067 FILLER_0_34_221
*1068 FILLER_0_34_233
*1069 FILLER_0_34_245
*1070 FILLER_0_34_251
*1071 FILLER_0_34_253
*1072 FILLER_0_34_265
*1073 FILLER_0_34_27
*1074 FILLER_0_34_277
*1075 FILLER_0_34_289
*1076 FILLER_0_34_29
*1077 FILLER_0_34_3
*1078 FILLER_0_34_301
*1079 FILLER_0_34_307
*1080 FILLER_0_34_309
*1081 FILLER_0_34_321
*1082 FILLER_0_34_333
*1083 FILLER_0_34_41
*1084 FILLER_0_34_53
*1085 FILLER_0_34_65
*1086 FILLER_0_34_77
*1087 FILLER_0_34_83
*1088 FILLER_0_34_85
*1089 FILLER_0_34_97
*1090 FILLER_0_35_105
*1091 FILLER_0_35_111
*1092 FILLER_0_35_113
*1093 FILLER_0_35_125
*1094 FILLER_0_35_137
*1095 FILLER_0_35_149
*1096 FILLER_0_35_15
*1097 FILLER_0_35_161
*1098 FILLER_0_35_167
*1099 FILLER_0_35_169
*1100 FILLER_0_35_181
*1101 FILLER_0_35_193
*1102 FILLER_0_35_205
*1103 FILLER_0_35_217
*1104 FILLER_0_35_223
*1105 FILLER_0_35_225
*1106 FILLER_0_35_237
*1107 FILLER_0_35_259
*1108 FILLER_0_35_27
*1109 FILLER_0_35_277
*1110 FILLER_0_35_281
*1111 FILLER_0_35_295
*1112 FILLER_0_35_3
*1113 FILLER_0_35_307
*1114 FILLER_0_35_319
*1115 FILLER_0_35_331
*1116 FILLER_0_35_39
*1117 FILLER_0_35_51
*1118 FILLER_0_35_55
*1119 FILLER_0_35_57
*1120 FILLER_0_35_69
*1121 FILLER_0_35_81
*1122 FILLER_0_35_93
*1123 FILLER_0_36_109
*1124 FILLER_0_36_121
*1125 FILLER_0_36_133
*1126 FILLER_0_36_139
*1127 FILLER_0_36_141
*1128 FILLER_0_36_15
*1129 FILLER_0_36_153
*1130 FILLER_0_36_165
*1131 FILLER_0_36_169
*1132 FILLER_0_36_179
*1133 FILLER_0_36_191
*1134 FILLER_0_36_195
*1135 FILLER_0_36_197
*1136 FILLER_0_36_209
*1137 FILLER_0_36_221
*1138 FILLER_0_36_229
*1139 FILLER_0_36_238
*1140 FILLER_0_36_251
*1141 FILLER_0_36_253
*1142 FILLER_0_36_27
*1143 FILLER_0_36_288
*1144 FILLER_0_36_29
*1145 FILLER_0_36_3
*1146 FILLER_0_36_305
*1147 FILLER_0_36_325
*1148 FILLER_0_36_333
*1149 FILLER_0_36_41
*1150 FILLER_0_36_53
*1151 FILLER_0_36_65
*1152 FILLER_0_36_77
*1153 FILLER_0_36_83
*1154 FILLER_0_36_85
*1155 FILLER_0_36_97
*1156 FILLER_0_37_105
*1157 FILLER_0_37_111
*1158 FILLER_0_37_113
*1159 FILLER_0_37_125
*1160 FILLER_0_37_137
*1161 FILLER_0_37_15
*1162 FILLER_0_37_157
*1163 FILLER_0_37_165
*1164 FILLER_0_37_185
*1165 FILLER_0_37_192
*1166 FILLER_0_37_199
*1167 FILLER_0_37_219
*1168 FILLER_0_37_223
*1169 FILLER_0_37_225
*1170 FILLER_0_37_237
*1171 FILLER_0_37_254
*1172 FILLER_0_37_27
*1173 FILLER_0_37_278
*1174 FILLER_0_37_284
*1175 FILLER_0_37_3
*1176 FILLER_0_37_308
*1177 FILLER_0_37_312
*1178 FILLER_0_37_333
*1179 FILLER_0_37_39
*1180 FILLER_0_37_51
*1181 FILLER_0_37_55
*1182 FILLER_0_37_57
*1183 FILLER_0_37_69
*1184 FILLER_0_37_81
*1185 FILLER_0_37_93
*1186 FILLER_0_38_10
*1187 FILLER_0_38_102
*1188 FILLER_0_38_106
*1189 FILLER_0_38_110
*1190 FILLER_0_38_113
*1191 FILLER_0_38_118
*1192 FILLER_0_38_122
*1193 FILLER_0_38_126
*1194 FILLER_0_38_132
*1195 FILLER_0_38_14
*1196 FILLER_0_38_141
*1197 FILLER_0_38_151
*1198 FILLER_0_38_157
*1199 FILLER_0_38_167
*1200 FILLER_0_38_169
*1201 FILLER_0_38_174
*1202 FILLER_0_38_18
*1203 FILLER_0_38_181
*1204 FILLER_0_38_185
*1205 FILLER_0_38_190
*1206 FILLER_0_38_197
*1207 FILLER_0_38_209
*1208 FILLER_0_38_22
*1209 FILLER_0_38_221
*1210 FILLER_0_38_225
*1211 FILLER_0_38_268
*1212 FILLER_0_38_318
*1213 FILLER_0_38_32
*1214 FILLER_0_38_322
*1215 FILLER_0_38_326
*1216 FILLER_0_38_334
*1217 FILLER_0_38_38
*1218 FILLER_0_38_42
*1219 FILLER_0_38_46
*1220 FILLER_0_38_50
*1221 FILLER_0_38_54
*1222 FILLER_0_38_57
*1223 FILLER_0_38_6
*1224 FILLER_0_38_62
*1225 FILLER_0_38_66
*1226 FILLER_0_38_70
*1227 FILLER_0_38_74
*1228 FILLER_0_38_78
*1229 FILLER_0_38_88
*1230 FILLER_0_38_94
*1231 FILLER_0_38_98
*1232 FILLER_0_3_105
*1233 FILLER_0_3_111
*1234 FILLER_0_3_113
*1235 FILLER_0_3_125
*1236 FILLER_0_3_137
*1237 FILLER_0_3_149
*1238 FILLER_0_3_15
*1239 FILLER_0_3_161
*1240 FILLER_0_3_167
*1241 FILLER_0_3_169
*1242 FILLER_0_3_181
*1243 FILLER_0_3_193
*1244 FILLER_0_3_205
*1245 FILLER_0_3_217
*1246 FILLER_0_3_223
*1247 FILLER_0_3_225
*1248 FILLER_0_3_237
*1249 FILLER_0_3_249
*1250 FILLER_0_3_261
*1251 FILLER_0_3_27
*1252 FILLER_0_3_273
*1253 FILLER_0_3_279
*1254 FILLER_0_3_281
*1255 FILLER_0_3_293
*1256 FILLER_0_3_3
*1257 FILLER_0_3_305
*1258 FILLER_0_3_317
*1259 FILLER_0_3_329
*1260 FILLER_0_3_39
*1261 FILLER_0_3_51
*1262 FILLER_0_3_55
*1263 FILLER_0_3_57
*1264 FILLER_0_3_69
*1265 FILLER_0_3_81
*1266 FILLER_0_3_93
*1267 FILLER_0_4_109
*1268 FILLER_0_4_121
*1269 FILLER_0_4_133
*1270 FILLER_0_4_139
*1271 FILLER_0_4_141
*1272 FILLER_0_4_15
*1273 FILLER_0_4_153
*1274 FILLER_0_4_165
*1275 FILLER_0_4_177
*1276 FILLER_0_4_189
*1277 FILLER_0_4_195
*1278 FILLER_0_4_197
*1279 FILLER_0_4_209
*1280 FILLER_0_4_221
*1281 FILLER_0_4_233
*1282 FILLER_0_4_245
*1283 FILLER_0_4_251
*1284 FILLER_0_4_253
*1285 FILLER_0_4_265
*1286 FILLER_0_4_27
*1287 FILLER_0_4_277
*1288 FILLER_0_4_289
*1289 FILLER_0_4_29
*1290 FILLER_0_4_3
*1291 FILLER_0_4_301
*1292 FILLER_0_4_307
*1293 FILLER_0_4_309
*1294 FILLER_0_4_321
*1295 FILLER_0_4_333
*1296 FILLER_0_4_41
*1297 FILLER_0_4_53
*1298 FILLER_0_4_65
*1299 FILLER_0_4_77
*1300 FILLER_0_4_83
*1301 FILLER_0_4_85
*1302 FILLER_0_4_97
*1303 FILLER_0_5_105
*1304 FILLER_0_5_111
*1305 FILLER_0_5_113
*1306 FILLER_0_5_125
*1307 FILLER_0_5_137
*1308 FILLER_0_5_149
*1309 FILLER_0_5_15
*1310 FILLER_0_5_161
*1311 FILLER_0_5_167
*1312 FILLER_0_5_169
*1313 FILLER_0_5_181
*1314 FILLER_0_5_193
*1315 FILLER_0_5_205
*1316 FILLER_0_5_217
*1317 FILLER_0_5_223
*1318 FILLER_0_5_225
*1319 FILLER_0_5_237
*1320 FILLER_0_5_249
*1321 FILLER_0_5_261
*1322 FILLER_0_5_27
*1323 FILLER_0_5_273
*1324 FILLER_0_5_279
*1325 FILLER_0_5_281
*1326 FILLER_0_5_293
*1327 FILLER_0_5_3
*1328 FILLER_0_5_305
*1329 FILLER_0_5_317
*1330 FILLER_0_5_329
*1331 FILLER_0_5_39
*1332 FILLER_0_5_51
*1333 FILLER_0_5_55
*1334 FILLER_0_5_57
*1335 FILLER_0_5_69
*1336 FILLER_0_5_81
*1337 FILLER_0_5_93
*1338 FILLER_0_6_109
*1339 FILLER_0_6_121
*1340 FILLER_0_6_133
*1341 FILLER_0_6_139
*1342 FILLER_0_6_141
*1343 FILLER_0_6_15
*1344 FILLER_0_6_153
*1345 FILLER_0_6_165
*1346 FILLER_0_6_177
*1347 FILLER_0_6_189
*1348 FILLER_0_6_195
*1349 FILLER_0_6_197
*1350 FILLER_0_6_209
*1351 FILLER_0_6_221
*1352 FILLER_0_6_233
*1353 FILLER_0_6_245
*1354 FILLER_0_6_251
*1355 FILLER_0_6_253
*1356 FILLER_0_6_265
*1357 FILLER_0_6_27
*1358 FILLER_0_6_277
*1359 FILLER_0_6_289
*1360 FILLER_0_6_29
*1361 FILLER_0_6_3
*1362 FILLER_0_6_301
*1363 FILLER_0_6_307
*1364 FILLER_0_6_309
*1365 FILLER_0_6_321
*1366 FILLER_0_6_333
*1367 FILLER_0_6_41
*1368 FILLER_0_6_53
*1369 FILLER_0_6_65
*1370 FILLER_0_6_77
*1371 FILLER_0_6_83
*1372 FILLER_0_6_85
*1373 FILLER_0_6_97
*1374 FILLER_0_7_105
*1375 FILLER_0_7_111
*1376 FILLER_0_7_113
*1377 FILLER_0_7_125
*1378 FILLER_0_7_137
*1379 FILLER_0_7_149
*1380 FILLER_0_7_15
*1381 FILLER_0_7_161
*1382 FILLER_0_7_167
*1383 FILLER_0_7_169
*1384 FILLER_0_7_181
*1385 FILLER_0_7_193
*1386 FILLER_0_7_205
*1387 FILLER_0_7_217
*1388 FILLER_0_7_223
*1389 FILLER_0_7_225
*1390 FILLER_0_7_237
*1391 FILLER_0_7_249
*1392 FILLER_0_7_261
*1393 FILLER_0_7_27
*1394 FILLER_0_7_273
*1395 FILLER_0_7_279
*1396 FILLER_0_7_281
*1397 FILLER_0_7_293
*1398 FILLER_0_7_3
*1399 FILLER_0_7_305
*1400 FILLER_0_7_317
*1401 FILLER_0_7_329
*1402 FILLER_0_7_39
*1403 FILLER_0_7_51
*1404 FILLER_0_7_55
*1405 FILLER_0_7_57
*1406 FILLER_0_7_69
*1407 FILLER_0_7_81
*1408 FILLER_0_7_93
*1409 FILLER_0_8_109
*1410 FILLER_0_8_121
*1411 FILLER_0_8_133
*1412 FILLER_0_8_139
*1413 FILLER_0_8_141
*1414 FILLER_0_8_15
*1415 FILLER_0_8_153
*1416 FILLER_0_8_165
*1417 FILLER_0_8_177
*1418 FILLER_0_8_189
*1419 FILLER_0_8_195
*1420 FILLER_0_8_197
*1421 FILLER_0_8_209
*1422 FILLER_0_8_221
*1423 FILLER_0_8_233
*1424 FILLER_0_8_245
*1425 FILLER_0_8_251
*1426 FILLER_0_8_253
*1427 FILLER_0_8_265
*1428 FILLER_0_8_27
*1429 FILLER_0_8_277
*1430 FILLER_0_8_289
*1431 FILLER_0_8_29
*1432 FILLER_0_8_3
*1433 FILLER_0_8_301
*1434 FILLER_0_8_307
*1435 FILLER_0_8_309
*1436 FILLER_0_8_321
*1437 FILLER_0_8_333
*1438 FILLER_0_8_41
*1439 FILLER_0_8_53
*1440 FILLER_0_8_65
*1441 FILLER_0_8_77
*1442 FILLER_0_8_83
*1443 FILLER_0_8_85
*1444 FILLER_0_8_97
*1445 FILLER_0_9_105
*1446 FILLER_0_9_111
*1447 FILLER_0_9_113
*1448 FILLER_0_9_125
*1449 FILLER_0_9_137
*1450 FILLER_0_9_149
*1451 FILLER_0_9_15
*1452 FILLER_0_9_161
*1453 FILLER_0_9_167
*1454 FILLER_0_9_169
*1455 FILLER_0_9_181
*1456 FILLER_0_9_193
*1457 FILLER_0_9_205
*1458 FILLER_0_9_217
*1459 FILLER_0_9_223
*1460 FILLER_0_9_225
*1461 FILLER_0_9_237
*1462 FILLER_0_9_249
*1463 FILLER_0_9_261
*1464 FILLER_0_9_27
*1465 FILLER_0_9_273
*1466 FILLER_0_9_279
*1467 FILLER_0_9_281
*1468 FILLER_0_9_293
*1469 FILLER_0_9_3