*SPEF "ieee 1481-1999"
*DESIGN "tt_um_qubitbytes_alive"
*DATE "14:48:24 Wednesday April 17, 2024"
*VENDOR "The OpenROAD Project"
*PROGRAM "OpenROAD"
*VERSION "0889970d1790a2617e69f253221b8bd7626e51dc"
*DESIGN_FLOW "NAME_SCOPE LOCAL" "PIN_CAP NONE"
*DIVIDER /
*DELIMITER :
*BUS_DELIMITER []
*T_UNIT 1 NS
*C_UNIT 1 PF
*R_UNIT 1 OHM
*L_UNIT 1 HENRY

*NAME_MAP
*3 clk
*4 ena
*5 rst_n
*6 ui_in[0]
*7 ui_in[1]
*8 ui_in[2]
*9 ui_in[3]
*10 ui_in[4]
*11 ui_in[5]
*12 ui_in[6]
*13 ui_in[7]
*14 uio_in[0]
*15 uio_in[1]
*16 uio_in[2]
*17 uio_in[3]
*18 uio_in[4]
*19 uio_in[5]
*20 uio_in[6]
*21 uio_in[7]
*22 net12
*23 net13
*24 net14
*25 net15
*26 net16
*27 net17
*28 net18
*29 net19
*30 uio_out[0]
*31 net5
*32 net6
*33 net7
*34 net8
*35 net9
*36 net10
*37 net11
*38 uo_out[0]
*39 uo_out[1]
*40 uo_out[2]
*41 uo_out[3]
*42 uo_out[4]
*43 uo_out[5]
*44 uo_out[6]
*45 uo_out[7]
*46 _0000_
*47 _0001_
*48 _0002_
*49 _0003_
*50 _0004_
*51 _0005_
*52 _0006_
*53 _0007_
*54 _0008_
*55 _0009_
*56 _0010_
*57 _0011_
*58 _0012_
*59 _0013_
*60 _0014_
*61 _0015_
*62 _0016_
*63 _0017_
*64 _0018_
*65 _0019_
*66 _0020_
*67 _0021_
*68 _0022_
*69 _0023_
*70 _0024_
*71 _0025_
*72 _0026_
*73 _0027_
*74 _0028_
*75 _0029_
*76 _0030_
*77 _0031_
*78 _0032_
*79 _0033_
*80 _0034_
*81 _0035_
*82 _0036_
*83 _0037_
*84 _0038_
*85 _0039_
*86 _0040_
*87 _0041_
*88 _0042_
*89 _0043_
*90 _0044_
*91 _0045_
*92 _0046_
*93 _0047_
*94 _0048_
*95 _0049_
*96 _0050_
*97 _0051_
*98 _0052_
*99 _0053_
*100 _0054_
*101 _0055_
*102 _0056_
*103 _0057_
*104 _0058_
*105 _0059_
*106 _0060_
*107 _0061_
*108 _0062_
*109 _0063_
*110 _0064_
*111 _0065_
*112 _0066_
*113 _0067_
*114 _0068_
*115 _0069_
*116 _0070_
*117 _0071_
*118 _0072_
*119 _0073_
*120 _0074_
*121 _0075_
*122 _0076_
*123 _0077_
*124 _0078_
*125 _0079_
*126 _0080_
*127 _0081_
*128 _0082_
*129 _0083_
*130 _0084_
*131 _0085_
*132 _0086_
*133 _0087_
*134 _0088_
*135 _0089_
*136 _0090_
*137 _0091_
*138 _0092_
*139 _0093_
*140 _0094_
*141 _0095_
*142 _0096_
*143 _0097_
*144 _0098_
*145 _0099_
*146 _0100_
*147 _0101_
*148 _0102_
*149 _0103_
*150 _0104_
*151 _0105_
*152 _0106_
*153 _0107_
*154 _0108_
*155 _0109_
*156 _0110_
*157 _0111_
*158 _0112_
*159 _0113_
*160 _0114_
*161 _0115_
*162 _0116_
*163 _0117_
*164 _0118_
*165 _0119_
*166 _0120_
*167 _0121_
*168 _0122_
*169 _0123_
*170 _0124_
*171 _0125_
*172 _0126_
*173 _0127_
*174 _0128_
*175 _0129_
*176 _0130_
*177 _0131_
*178 _0132_
*179 _0133_
*180 _0134_
*181 _0135_
*182 _0136_
*183 _0137_
*184 _0138_
*185 _0139_
*186 _0140_
*187 _0141_
*188 _0142_
*189 _0143_
*190 _0144_
*191 _0145_
*192 _0146_
*193 _0147_
*194 _0148_
*195 _0149_
*196 _0150_
*197 _0151_
*198 _0152_
*199 _0153_
*200 _0154_
*201 _0155_
*202 _0156_
*203 _0157_
*204 _0158_
*205 _0159_
*206 _0160_
*207 _0161_
*208 _0162_
*209 _0163_
*210 _0164_
*211 _0165_
*212 _0166_
*213 _0167_
*214 _0168_
*215 _0169_
*216 _0170_
*217 _0171_
*218 _0172_
*219 _0173_
*220 _0174_
*221 _0175_
*222 _0176_
*223 _0177_
*224 _0178_
*225 _0179_
*226 _0180_
*227 _0181_
*228 _0182_
*229 _0183_
*230 _0184_
*231 _0185_
*232 _0186_
*233 _0187_
*234 _0188_
*235 _0189_
*236 _0190_
*237 _0191_
*238 _0192_
*239 _0193_
*240 _0194_
*241 _0195_
*242 _0196_
*243 _0197_
*244 _0198_
*245 _0199_
*246 _0200_
*247 _0201_
*248 _0202_
*249 _0203_
*250 _0204_
*251 _0205_
*252 _0206_
*253 _0207_
*254 _0208_
*255 _0209_
*256 _0210_
*257 _0211_
*258 _0212_
*259 _0213_
*260 _0214_
*261 _0215_
*262 _0216_
*263 _0217_
*264 _0218_
*265 _0219_
*266 _0220_
*267 _0221_
*268 _0222_
*269 _0223_
*270 _0224_
*271 _0225_
*272 _0226_
*273 _0227_
*274 _0228_
*275 _0229_
*276 _0230_
*277 _0231_
*278 _0232_
*279 _0233_
*280 _0234_
*281 _0235_
*282 _0236_
*283 _0237_
*284 _0238_
*285 _0239_
*286 _0240_
*287 _0241_
*288 _0242_
*289 _0243_
*290 _0244_
*291 _0245_
*292 _0246_
*293 _0247_
*294 _0248_
*295 _0249_
*296 _0250_
*297 _0251_
*298 _0252_
*299 _0253_
*300 _0254_
*301 _0255_
*302 _0256_
*303 _0257_
*304 _0258_
*305 _0259_
*306 _0260_
*307 _0261_
*308 _0262_
*309 _0263_
*310 _0264_
*311 _0265_
*312 _0266_
*313 _0267_
*314 _0268_
*315 _0269_
*316 _0270_
*317 _0271_
*318 _0272_
*319 _0273_
*320 _0274_
*321 _0275_
*322 _0276_
*323 _0277_
*324 _0278_
*325 _0279_
*326 _0280_
*327 _0281_
*328 _0282_
*329 _0283_
*330 _0284_
*331 _0285_
*332 _0286_
*333 _0287_
*334 _0288_
*335 _0289_
*336 _0290_
*337 _0291_
*338 _0292_
*339 _0293_
*340 _0294_
*341 _0295_
*342 _0296_
*343 _0297_
*344 _0298_
*345 _0299_
*346 _0300_
*347 _0301_
*348 _0302_
*349 _0303_
*350 _0304_
*351 _0305_
*352 _0306_
*353 _0307_
*354 _0308_
*355 _0309_
*356 _0310_
*357 _0311_
*358 _0312_
*359 _0313_
*360 _0314_
*361 _0315_
*362 _0316_
*363 _0317_
*364 _0318_
*365 _0319_
*366 _0320_
*367 _0321_
*368 _0322_
*369 _0323_
*370 _0324_
*371 _0325_
*372 _0326_
*373 _0327_
*374 _0328_
*375 _0329_
*376 _0330_
*377 _0331_
*378 _0332_
*379 _0333_
*380 _0334_
*381 _0335_
*382 _0336_
*383 _0337_
*384 _0338_
*385 _0339_
*386 _0340_
*387 _0341_
*388 _0342_
*389 _0343_
*390 _0344_
*391 _0345_
*392 _0346_
*393 _0347_
*394 _0348_
*395 _0349_
*396 _0350_
*397 _0351_
*398 _0352_
*399 _0353_
*400 _0354_
*401 _0355_
*402 _0356_
*403 _0357_
*404 _0358_
*405 _0359_
*406 _0360_
*407 _0361_
*408 _0362_
*409 _0363_
*410 _0364_
*411 _0365_
*412 _0366_
*413 _0367_
*414 _0368_
*415 _0369_
*416 _0370_
*417 _0371_
*418 _0372_
*419 _0373_
*420 _0374_
*421 _0375_
*422 _0376_
*423 _0377_
*424 _0378_
*425 _0379_
*426 _0380_
*427 _0381_
*428 _0382_
*429 _0383_
*430 _0384_
*431 _0385_
*432 _0386_
*433 _0387_
*434 _0388_
*435 _0389_
*436 _0390_
*437 _0391_
*438 _0392_
*439 _0393_
*440 _0394_
*441 _0395_
*442 _0396_
*443 _0397_
*444 _0398_
*445 _0399_
*446 _0400_
*447 _0401_
*448 _0402_
*449 _0403_
*450 _0404_
*451 _0405_
*452 _0406_
*453 _0407_
*454 _0408_
*455 _0409_
*456 _0410_
*457 _0411_
*458 _0412_
*459 _0413_
*460 _0414_
*461 _0415_
*462 _0416_
*463 _0417_
*464 _0418_
*465 _0419_
*466 _0420_
*467 _0421_
*468 _0422_
*469 _0423_
*470 _0424_
*471 _0425_
*472 _0426_
*473 _0427_
*474 _0428_
*475 _0429_
*476 _0430_
*477 _0431_
*478 _0432_
*479 _0433_
*480 _0434_
*481 _0435_
*482 _0436_
*483 _0437_
*484 _0438_
*485 _0439_
*486 _0440_
*487 _0441_
*488 _0442_
*489 _0443_
*490 _0444_
*491 _0445_
*492 _0446_
*493 _0447_
*494 _0448_
*495 _0449_
*496 _0450_
*497 _0451_
*498 _0452_
*499 _0453_
*500 _0454_
*501 _0455_
*502 _0456_
*503 _0457_
*504 _0458_
*505 _0459_
*506 _0460_
*507 _0461_
*508 _0462_
*509 _0463_
*510 _0464_
*511 _0465_
*512 _0466_
*513 _0467_
*514 _0468_
*515 _0469_
*516 _0470_
*517 _0471_
*518 _0472_
*519 _0473_
*520 _0474_
*521 _0475_
*522 _0476_
*523 _0477_
*524 _0478_
*525 _0479_
*526 _0480_
*527 _0481_
*528 _0482_
*529 _0483_
*530 _0484_
*531 _0485_
*532 _0486_
*533 _0487_
*534 _0488_
*535 _0489_
*536 _0490_
*537 _0491_
*538 _0492_
*539 _0493_
*540 _0494_
*541 _0495_
*542 _0496_
*543 _0497_
*544 _0498_
*545 _0499_
*546 _0500_
*547 _0501_
*548 _0502_
*549 _0503_
*550 _0504_
*551 _0505_
*552 _0506_
*553 _0507_
*554 _0508_
*555 _0509_
*556 _0510_
*557 _0511_
*558 _0512_
*559 _0513_
*560 _0514_
*561 _0515_
*562 _0516_
*563 _0517_
*564 _0518_
*565 _0519_
*566 _0520_
*567 _0521_
*568 _0522_
*569 _0523_
*570 _0524_
*571 _0525_
*572 _0526_
*573 _0527_
*574 _0528_
*575 _0529_
*576 _0530_
*577 _0531_
*578 _0532_
*579 _0533_
*580 _0534_
*581 _0535_
*582 _0536_
*583 _0537_
*584 _0538_
*585 _0539_
*586 _0540_
*587 _0541_
*588 _0542_
*589 _0543_
*590 _0544_
*591 _0545_
*592 _0546_
*593 _0547_
*594 _0548_
*595 _0549_
*596 _0550_
*597 _0551_
*598 _0552_
*599 _0553_
*600 _0554_
*601 _0555_
*602 _0556_
*603 _0557_
*604 _0558_
*605 _0559_
*606 _0560_
*607 _0561_
*608 _0562_
*609 _0563_
*610 _0564_
*611 _0565_
*612 _0566_
*613 _0567_
*614 _0568_
*615 _0569_
*616 _0570_
*617 _0571_
*618 _0572_
*619 _0573_
*620 _0574_
*621 _0575_
*622 _0576_
*623 _0577_
*624 _0578_
*625 _0579_
*626 _0580_
*627 _0581_
*628 _0582_
*629 _0583_
*630 _0584_
*631 _0585_
*632 _0586_
*633 _0587_
*634 _0588_
*635 _0589_
*636 _0590_
*637 _0591_
*638 _0592_
*639 _0593_
*640 _0594_
*641 _0595_
*642 _0596_
*643 _0597_
*644 _0598_
*645 _0599_
*646 _0600_
*647 _0601_
*648 _0602_
*649 _0603_
*650 _0604_
*651 _0605_
*652 _0606_
*653 _0607_
*654 _0608_
*655 _0609_
*656 _0610_
*657 _0611_
*658 _0612_
*659 _0613_
*660 _0614_
*661 _0615_
*662 _0616_
*663 _0617_
*664 _0618_
*665 _0619_
*666 _0620_
*667 _0621_
*668 _0622_
*669 _0623_
*670 _0624_
*671 _0625_
*672 _0626_
*673 _0627_
*674 _0628_
*675 _0629_
*676 _0630_
*677 _0631_
*678 _0632_
*679 _0633_
*680 _0634_
*681 _0635_
*682 _0636_
*683 _0637_
*684 _0638_
*685 _0639_
*686 _0640_
*687 _0641_
*688 _0642_
*689 _0643_
*690 _0644_
*691 _0645_
*692 _0646_
*693 _0647_
*694 _0648_
*695 _0649_
*696 _0650_
*697 _0651_
*698 _0652_
*699 _0653_
*700 _0654_
*701 _0655_
*702 _0656_
*703 _0657_
*704 _0658_
*705 _0659_
*706 _0660_
*707 _0661_
*708 _0662_
*709 _0663_
*710 _0664_
*711 _0665_
*712 _0666_
*713 _0667_
*714 _0668_
*715 _0669_
*716 _0670_
*717 _0671_
*718 _0672_
*719 _0673_
*720 _0674_
*721 _0675_
*722 _0676_
*723 _0677_
*724 _0678_
*725 _0679_
*726 _0680_
*727 _0681_
*728 _0682_
*729 _0683_
*730 _0684_
*731 _0685_
*732 _0686_
*733 _0687_
*734 _0688_
*735 _0689_
*736 _0690_
*737 _0691_
*738 _0692_
*739 _0693_
*740 _0694_
*741 _0695_
*742 _0696_
*743 _0697_
*744 _0698_
*745 _0699_
*746 _0700_
*747 _0701_
*748 _0702_
*749 _0703_
*750 _0704_
*751 _0705_
*752 _0706_
*753 _0707_
*754 _0708_
*755 _0709_
*756 _0710_
*757 _0711_
*758 _0712_
*759 _0713_
*760 _0714_
*761 _0715_
*762 _0716_
*763 _0717_
*764 _0718_
*765 _0719_
*766 _0720_
*767 _0721_
*768 _0722_
*769 _0723_
*770 _0724_
*771 _0725_
*772 _0726_
*773 _0727_
*774 _0728_
*775 _0729_
*776 _0730_
*777 _0731_
*778 _0732_
*779 _0733_
*780 _0734_
*781 _0735_
*782 _0736_
*783 _0737_
*784 _0738_
*785 _0739_
*786 _0740_
*787 _0741_
*788 _0742_
*789 _0743_
*790 _0744_
*791 _0745_
*792 _0746_
*793 _0747_
*794 _0748_
*795 _0749_
*796 _0750_
*797 clknet_0_clk
*798 clknet_3_0__leaf_clk
*799 clknet_3_1__leaf_clk
*800 clknet_3_2__leaf_clk
*801 clknet_3_3__leaf_clk
*802 clknet_3_4__leaf_clk
*803 clknet_3_5__leaf_clk
*804 clknet_3_6__leaf_clk
*805 clknet_3_7__leaf_clk
*806 music_processor\.a\[0\]
*807 music_processor\.a\[1\]
*808 music_processor\.a\[2\]
*809 music_processor\.a\[3\]
*810 music_processor\.a\[4\]
*811 music_processor\.a\[5\]
*812 music_processor\.b\[0\]
*813 music_processor\.b\[1\]
*814 music_processor\.b\[2\]
*815 music_processor\.b\[3\]
*816 music_processor\.b\[4\]
*817 music_processor\.b\[5\]
*818 music_processor\.delay\[0\]
*819 music_processor\.delay\[1\]
*820 music_processor\.millis_counter\[0\]
*821 music_processor\.millis_counter\[1\]
*822 music_processor\.millis_counter\[2\]
*823 music_processor\.millis_counter\[3\]
*824 music_processor\.millis_counter\[4\]
*825 music_processor\.millis_counter\[5\]
*826 music_processor\.millis_counter\[6\]
*827 music_processor\.millis_counter\[7\]
*828 music_processor\.millis_counter\[8\]
*829 music_processor\.millis_counter\[9\]
*830 music_processor\.notelength\[2\]
*831 music_processor\.notelength\[3\]
*832 music_processor\.notelength\[4\]
*833 music_processor\.notelength\[5\]
*834 music_processor\.notelength\[6\]
*835 music_processor\.notelength\[7\]
*836 music_processor\.notelength\[8\]
*837 music_processor\.notelength\[9\]
*838 music_processor\.segdot\.dot_segment
*839 music_processor\.sound
*840 music_processor\.sound_freq\[0\]
*841 music_processor\.sound_freq\[1\]
*842 music_processor\.sound_freq\[2\]
*843 music_processor\.sound_freq\[3\]
*844 music_processor\.sound_freq\[4\]
*845 music_processor\.sound_freq\[5\]
*846 music_processor\.sound_freq\[6\]
*847 music_processor\.sound_freq\[7\]
*848 music_processor\.sound_freq\[8\]
*849 music_processor\.sound_freq\[9\]
*850 music_processor\.sound_processor\.tick_counter\[0\]
*851 music_processor\.sound_processor\.tick_counter\[10\]
*852 music_processor\.sound_processor\.tick_counter\[11\]
*853 music_processor\.sound_processor\.tick_counter\[12\]
*854 music_processor\.sound_processor\.tick_counter\[13\]
*855 music_processor\.sound_processor\.tick_counter\[14\]
*856 music_processor\.sound_processor\.tick_counter\[15\]
*857 music_processor\.sound_processor\.tick_counter\[16\]
*858 music_processor\.sound_processor\.tick_counter\[17\]
*859 music_processor\.sound_processor\.tick_counter\[18\]
*860 music_processor\.sound_processor\.tick_counter\[19\]
*861 music_processor\.sound_processor\.tick_counter\[1\]
*862 music_processor\.sound_processor\.tick_counter\[20\]
*863 music_processor\.sound_processor\.tick_counter\[21\]
*864 music_processor\.sound_processor\.tick_counter\[22\]
*865 music_processor\.sound_processor\.tick_counter\[23\]
*866 music_processor\.sound_processor\.tick_counter\[24\]
*867 music_processor\.sound_processor\.tick_counter\[25\]
*868 music_processor\.sound_processor\.tick_counter\[26\]
*869 music_processor\.sound_processor\.tick_counter\[27\]
*870 music_processor\.sound_processor\.tick_counter\[28\]
*871 music_processor\.sound_processor\.tick_counter\[29\]
*872 music_processor\.sound_processor\.tick_counter\[2\]
*873 music_processor\.sound_processor\.tick_counter\[30\]
*874 music_processor\.sound_processor\.tick_counter\[31\]
*875 music_processor\.sound_processor\.tick_counter\[3\]
*876 music_processor\.sound_processor\.tick_counter\[4\]
*877 music_processor\.sound_processor\.tick_counter\[5\]
*878 music_processor\.sound_processor\.tick_counter\[6\]
*879 music_processor\.sound_processor\.tick_counter\[7\]
*880 music_processor\.sound_processor\.tick_counter\[8\]
*881 music_processor\.sound_processor\.tick_counter\[9\]
*882 music_processor\.tick_counter\[0\]
*883 music_processor\.tick_counter\[10\]
*884 music_processor\.tick_counter\[11\]
*885 music_processor\.tick_counter\[12\]
*886 music_processor\.tick_counter\[13\]
*887 music_processor\.tick_counter\[14\]
*888 music_processor\.tick_counter\[15\]
*889 music_processor\.tick_counter\[1\]
*890 music_processor\.tick_counter\[2\]
*891 music_processor\.tick_counter\[3\]
*892 music_processor\.tick_counter\[4\]
*893 music_processor\.tick_counter\[5\]
*894 music_processor\.tick_counter\[6\]
*895 music_processor\.tick_counter\[7\]
*896 music_processor\.tick_counter\[8\]
*897 music_processor\.tick_counter\[9\]
*898 net1
*899 net2
*900 net20
*901 net21
*902 net22
*903 net23
*904 net24
*905 net25
*906 net26
*907 net27
*908 net28
*909 net29
*910 net3
*911 net30
*912 net31
*913 net32
*914 net33
*915 net34
*916 net35
*917 net36
*918 net37
*919 net38
*920 net39
*921 net4
*922 net40
*923 net41
*924 net42
*925 net43
*926 net44
*927 net45
*928 net46
*929 net47
*930 net48
*931 net49
*932 net50
*933 net51
*934 net52
*935 net53
*936 net54
*937 net55
*938 net56
*939 net57
*940 net58
*941 net59
*942 net60
*943 net61
*944 net62
*945 net63
*946 net64
*947 net65
*948 net66
*949 net67
*950 net68
*951 net69
*952 FILLER_0_0_111
*953 FILLER_0_0_113
*954 FILLER_0_0_126
*955 FILLER_0_0_138
*956 FILLER_0_0_141
*957 FILLER_0_0_15
*958 FILLER_0_0_156
*959 FILLER_0_0_169
*960 FILLER_0_0_181
*961 FILLER_0_0_193
*962 FILLER_0_0_197
*963 FILLER_0_0_209
*964 FILLER_0_0_221
*965 FILLER_0_0_225
*966 FILLER_0_0_237
*967 FILLER_0_0_249
*968 FILLER_0_0_253
*969 FILLER_0_0_265
*970 FILLER_0_0_27
*971 FILLER_0_0_277
*972 FILLER_0_0_281
*973 FILLER_0_0_29
*974 FILLER_0_0_293
*975 FILLER_0_0_3
*976 FILLER_0_0_305
*977 FILLER_0_0_309
*978 FILLER_0_0_321
*979 FILLER_0_0_333
*980 FILLER_0_0_41
*981 FILLER_0_0_53
*982 FILLER_0_0_57
*983 FILLER_0_0_69
*984 FILLER_0_0_81
*985 FILLER_0_0_85
*986 FILLER_0_0_93
*987 FILLER_0_0_99
*988 FILLER_0_10_122
*989 FILLER_0_10_141
*990 FILLER_0_10_15
*991 FILLER_0_10_151
*992 FILLER_0_10_179
*993 FILLER_0_10_19
*994 FILLER_0_10_191
*995 FILLER_0_10_197
*996 FILLER_0_10_207
*997 FILLER_0_10_215
*998 FILLER_0_10_224
*999 FILLER_0_10_232
*1000 FILLER_0_10_249
*1001 FILLER_0_10_253
*1002 FILLER_0_10_265
*1003 FILLER_0_10_271
*1004 FILLER_0_10_276
*1005 FILLER_0_10_280
*1006 FILLER_0_10_292
*1007 FILLER_0_10_3
*1008 FILLER_0_10_304
*1009 FILLER_0_10_309
*1010 FILLER_0_10_321
*1011 FILLER_0_10_333
*1012 FILLER_0_10_38
*1013 FILLER_0_10_49
*1014 FILLER_0_10_61
*1015 FILLER_0_10_70
*1016 FILLER_0_10_82
*1017 FILLER_0_10_91
*1018 FILLER_0_11_105
*1019 FILLER_0_11_111
*1020 FILLER_0_11_113
*1021 FILLER_0_11_140
*1022 FILLER_0_11_145
*1023 FILLER_0_11_15
*1024 FILLER_0_11_162
*1025 FILLER_0_11_169
*1026 FILLER_0_11_177
*1027 FILLER_0_11_194
*1028 FILLER_0_11_206
*1029 FILLER_0_11_216
*1030 FILLER_0_11_222
*1031 FILLER_0_11_225
*1032 FILLER_0_11_240
*1033 FILLER_0_11_272
*1034 FILLER_0_11_279
*1035 FILLER_0_11_281
*1036 FILLER_0_11_291
*1037 FILLER_0_11_3
*1038 FILLER_0_11_308
*1039 FILLER_0_11_318
*1040 FILLER_0_11_327
*1041 FILLER_0_11_41
*1042 FILLER_0_11_45
*1043 FILLER_0_11_55
*1044 FILLER_0_11_57
*1045 FILLER_0_11_63
*1046 FILLER_0_11_77
*1047 FILLER_0_11_83
*1048 FILLER_0_11_93
*1049 FILLER_0_12_105
*1050 FILLER_0_12_111
*1051 FILLER_0_12_125
*1052 FILLER_0_12_129
*1053 FILLER_0_12_138
*1054 FILLER_0_12_141
*1055 FILLER_0_12_15
*1056 FILLER_0_12_155
*1057 FILLER_0_12_167
*1058 FILLER_0_12_179
*1059 FILLER_0_12_195
*1060 FILLER_0_12_206
*1061 FILLER_0_12_210
*1062 FILLER_0_12_228
*1063 FILLER_0_12_250
*1064 FILLER_0_12_253
*1065 FILLER_0_12_261
*1066 FILLER_0_12_267
*1067 FILLER_0_12_292
*1068 FILLER_0_12_3
*1069 FILLER_0_12_300
*1070 FILLER_0_12_309
*1071 FILLER_0_12_316
*1072 FILLER_0_12_38
*1073 FILLER_0_12_43
*1074 FILLER_0_12_50
*1075 FILLER_0_12_62
*1076 FILLER_0_12_66
*1077 FILLER_0_12_70
*1078 FILLER_0_12_82
*1079 FILLER_0_12_93
*1080 FILLER_0_13_109
*1081 FILLER_0_13_126
*1082 FILLER_0_13_138
*1083 FILLER_0_13_15
*1084 FILLER_0_13_150
*1085 FILLER_0_13_162
*1086 FILLER_0_13_179
*1087 FILLER_0_13_191
*1088 FILLER_0_13_199
*1089 FILLER_0_13_211
*1090 FILLER_0_13_223
*1091 FILLER_0_13_225
*1092 FILLER_0_13_236
*1093 FILLER_0_13_279
*1094 FILLER_0_13_281
*1095 FILLER_0_13_286
*1096 FILLER_0_13_298
*1097 FILLER_0_13_3
*1098 FILLER_0_13_304
*1099 FILLER_0_13_310
*1100 FILLER_0_13_315
*1101 FILLER_0_13_331
*1102 FILLER_0_13_57
*1103 FILLER_0_13_75
*1104 FILLER_0_14_110
*1105 FILLER_0_14_116
*1106 FILLER_0_14_123
*1107 FILLER_0_14_137
*1108 FILLER_0_14_15
*1109 FILLER_0_14_170
*1110 FILLER_0_14_182
*1111 FILLER_0_14_194
*1112 FILLER_0_14_197
*1113 FILLER_0_14_209
*1114 FILLER_0_14_219
*1115 FILLER_0_14_247
*1116 FILLER_0_14_251
*1117 FILLER_0_14_253
*1118 FILLER_0_14_265
*1119 FILLER_0_14_27
*1120 FILLER_0_14_273
*1121 FILLER_0_14_29
*1122 FILLER_0_14_298
*1123 FILLER_0_14_3
*1124 FILLER_0_14_306
*1125 FILLER_0_14_319
*1126 FILLER_0_14_331
*1127 FILLER_0_14_41
*1128 FILLER_0_14_48
*1129 FILLER_0_14_60
*1130 FILLER_0_14_64
*1131 FILLER_0_14_73
*1132 FILLER_0_14_81
*1133 FILLER_0_14_98
*1134 FILLER_0_15_104
*1135 FILLER_0_15_113
*1136 FILLER_0_15_122
*1137 FILLER_0_15_132
*1138 FILLER_0_15_144
*1139 FILLER_0_15_15
*1140 FILLER_0_15_152
*1141 FILLER_0_15_163
*1142 FILLER_0_15_167
*1143 FILLER_0_15_169
*1144 FILLER_0_15_181
*1145 FILLER_0_15_187
*1146 FILLER_0_15_207
*1147 FILLER_0_15_219
*1148 FILLER_0_15_223
*1149 FILLER_0_15_225
*1150 FILLER_0_15_237
*1151 FILLER_0_15_256
*1152 FILLER_0_15_27
*1153 FILLER_0_15_297
*1154 FILLER_0_15_3
*1155 FILLER_0_15_316
*1156 FILLER_0_15_39
*1157 FILLER_0_15_43
*1158 FILLER_0_15_64
*1159 FILLER_0_15_75
*1160 FILLER_0_15_83
*1161 FILLER_0_16_105
*1162 FILLER_0_16_122
*1163 FILLER_0_16_136
*1164 FILLER_0_16_147
*1165 FILLER_0_16_15
*1166 FILLER_0_16_153
*1167 FILLER_0_16_157
*1168 FILLER_0_16_169
*1169 FILLER_0_16_194
*1170 FILLER_0_16_205
*1171 FILLER_0_16_219
*1172 FILLER_0_16_223
*1173 FILLER_0_16_240
*1174 FILLER_0_16_253
*1175 FILLER_0_16_265
*1176 FILLER_0_16_27
*1177 FILLER_0_16_277
*1178 FILLER_0_16_29
*1179 FILLER_0_16_3
*1180 FILLER_0_16_307
*1181 FILLER_0_16_314
*1182 FILLER_0_16_319
*1183 FILLER_0_16_330
*1184 FILLER_0_16_334
*1185 FILLER_0_16_41
*1186 FILLER_0_16_58
*1187 FILLER_0_16_82
*1188 FILLER_0_16_85
*1189 FILLER_0_16_93
*1190 FILLER_0_16_97
*1191 FILLER_0_17_113
*1192 FILLER_0_17_127
*1193 FILLER_0_17_139
*1194 FILLER_0_17_143
*1195 FILLER_0_17_15
*1196 FILLER_0_17_169
*1197 FILLER_0_17_203
*1198 FILLER_0_17_207
*1199 FILLER_0_17_216
*1200 FILLER_0_17_222
*1201 FILLER_0_17_229
*1202 FILLER_0_17_257
*1203 FILLER_0_17_27
*1204 FILLER_0_17_273
*1205 FILLER_0_17_279
*1206 FILLER_0_17_286
*1207 FILLER_0_17_298
*1208 FILLER_0_17_3
*1209 FILLER_0_17_307
*1210 FILLER_0_17_318
*1211 FILLER_0_17_39
*1212 FILLER_0_17_51
*1213 FILLER_0_17_55
*1214 FILLER_0_17_57
*1215 FILLER_0_17_69
*1216 FILLER_0_17_81
*1217 FILLER_0_17_87
*1218 FILLER_0_18_101
*1219 FILLER_0_18_105
*1220 FILLER_0_18_122
*1221 FILLER_0_18_134
*1222 FILLER_0_18_15
*1223 FILLER_0_18_157
*1224 FILLER_0_18_183
*1225 FILLER_0_18_192
*1226 FILLER_0_18_213
*1227 FILLER_0_18_217
*1228 FILLER_0_18_229
*1229 FILLER_0_18_239
*1230 FILLER_0_18_251
*1231 FILLER_0_18_253
*1232 FILLER_0_18_27
*1233 FILLER_0_18_275
*1234 FILLER_0_18_279
*1235 FILLER_0_18_29
*1236 FILLER_0_18_3
*1237 FILLER_0_18_302
*1238 FILLER_0_18_309
*1239 FILLER_0_18_315
*1240 FILLER_0_18_319
*1241 FILLER_0_18_333
*1242 FILLER_0_18_41
*1243 FILLER_0_18_53
*1244 FILLER_0_18_73
*1245 FILLER_0_18_82
*1246 FILLER_0_19_107
*1247 FILLER_0_19_111
*1248 FILLER_0_19_127
*1249 FILLER_0_19_139
*1250 FILLER_0_19_147
*1251 FILLER_0_19_15
*1252 FILLER_0_19_156
*1253 FILLER_0_19_177
*1254 FILLER_0_19_223
*1255 FILLER_0_19_230
*1256 FILLER_0_19_252
*1257 FILLER_0_19_258
*1258 FILLER_0_19_27
*1259 FILLER_0_19_272
*1260 FILLER_0_19_281
*1261 FILLER_0_19_294
*1262 FILLER_0_19_3
*1263 FILLER_0_19_302
*1264 FILLER_0_19_317
*1265 FILLER_0_19_39
*1266 FILLER_0_19_49
*1267 FILLER_0_19_55
*1268 FILLER_0_19_57
*1269 FILLER_0_19_69
*1270 FILLER_0_19_79
*1271 FILLER_0_19_96
*1272 FILLER_0_1_109
*1273 FILLER_0_1_117
*1274 FILLER_0_1_15
*1275 FILLER_0_1_162
*1276 FILLER_0_1_186
*1277 FILLER_0_1_198
*1278 FILLER_0_1_210
*1279 FILLER_0_1_222
*1280 FILLER_0_1_225
*1281 FILLER_0_1_237
*1282 FILLER_0_1_249
*1283 FILLER_0_1_261
*1284 FILLER_0_1_27
*1285 FILLER_0_1_273
*1286 FILLER_0_1_279
*1287 FILLER_0_1_281
*1288 FILLER_0_1_293
*1289 FILLER_0_1_3
*1290 FILLER_0_1_305
*1291 FILLER_0_1_317
*1292 FILLER_0_1_329
*1293 FILLER_0_1_39
*1294 FILLER_0_1_51
*1295 FILLER_0_1_55
*1296 FILLER_0_1_57
*1297 FILLER_0_1_69
*1298 FILLER_0_20_108
*1299 FILLER_0_20_11
*1300 FILLER_0_20_118
*1301 FILLER_0_20_148
*1302 FILLER_0_20_161
*1303 FILLER_0_20_169
*1304 FILLER_0_20_190
*1305 FILLER_0_20_197
*1306 FILLER_0_20_209
*1307 FILLER_0_20_215
*1308 FILLER_0_20_23
*1309 FILLER_0_20_230
*1310 FILLER_0_20_234
*1311 FILLER_0_20_251
*1312 FILLER_0_20_253
*1313 FILLER_0_20_27
*1314 FILLER_0_20_271
*1315 FILLER_0_20_280
*1316 FILLER_0_20_295
*1317 FILLER_0_20_3
*1318 FILLER_0_20_307
*1319 FILLER_0_20_309
*1320 FILLER_0_20_315
*1321 FILLER_0_20_323
*1322 FILLER_0_20_332
*1323 FILLER_0_20_45
*1324 FILLER_0_20_62
*1325 FILLER_0_20_68
*1326 FILLER_0_20_7
*1327 FILLER_0_20_82
*1328 FILLER_0_20_85
*1329 FILLER_0_20_98
*1330 FILLER_0_21_108
*1331 FILLER_0_21_113
*1332 FILLER_0_21_128
*1333 FILLER_0_21_155
*1334 FILLER_0_21_161
*1335 FILLER_0_21_175
*1336 FILLER_0_21_181
*1337 FILLER_0_21_199
*1338 FILLER_0_21_20
*1339 FILLER_0_21_219
*1340 FILLER_0_21_223
*1341 FILLER_0_21_225
*1342 FILLER_0_21_246
*1343 FILLER_0_21_258
*1344 FILLER_0_21_262
*1345 FILLER_0_21_266
*1346 FILLER_0_21_278
*1347 FILLER_0_21_288
*1348 FILLER_0_21_3
*1349 FILLER_0_21_305
*1350 FILLER_0_21_31
*1351 FILLER_0_21_328
*1352 FILLER_0_21_334
*1353 FILLER_0_21_39
*1354 FILLER_0_21_44
*1355 FILLER_0_21_62
*1356 FILLER_0_21_66
*1357 FILLER_0_21_74
*1358 FILLER_0_21_86
*1359 FILLER_0_21_92
*1360 FILLER_0_21_96
*1361 FILLER_0_22_103
*1362 FILLER_0_22_123
*1363 FILLER_0_22_141
*1364 FILLER_0_22_154
*1365 FILLER_0_22_161
*1366 FILLER_0_22_173
*1367 FILLER_0_22_189
*1368 FILLER_0_22_195
*1369 FILLER_0_22_205
*1370 FILLER_0_22_213
*1371 FILLER_0_22_235
*1372 FILLER_0_22_24
*1373 FILLER_0_22_240
*1374 FILLER_0_22_281
*1375 FILLER_0_22_291
*1376 FILLER_0_22_3
*1377 FILLER_0_22_303
*1378 FILLER_0_22_307
*1379 FILLER_0_22_309
*1380 FILLER_0_22_317
*1381 FILLER_0_22_45
*1382 FILLER_0_22_61
*1383 FILLER_0_22_74
*1384 FILLER_0_22_81
*1385 FILLER_0_22_85
*1386 FILLER_0_22_91
*1387 FILLER_0_23_104
*1388 FILLER_0_23_117
*1389 FILLER_0_23_123
*1390 FILLER_0_23_131
*1391 FILLER_0_23_143
*1392 FILLER_0_23_148
*1393 FILLER_0_23_167
*1394 FILLER_0_23_174
*1395 FILLER_0_23_180
*1396 FILLER_0_23_211
*1397 FILLER_0_23_22
*1398 FILLER_0_23_223
*1399 FILLER_0_23_233
*1400 FILLER_0_23_252
*1401 FILLER_0_23_26
*1402 FILLER_0_23_264
*1403 FILLER_0_23_276
*1404 FILLER_0_23_281
*1405 FILLER_0_23_287
*1406 FILLER_0_23_315
*1407 FILLER_0_23_320
*1408 FILLER_0_23_332
*1409 FILLER_0_23_35
*1410 FILLER_0_23_44
*1411 FILLER_0_23_52
*1412 FILLER_0_23_64
*1413 FILLER_0_23_70
*1414 FILLER_0_23_9
*1415 FILLER_0_24_101
*1416 FILLER_0_24_113
*1417 FILLER_0_24_121
*1418 FILLER_0_24_131
*1419 FILLER_0_24_139
*1420 FILLER_0_24_141
*1421 FILLER_0_24_154
*1422 FILLER_0_24_166
*1423 FILLER_0_24_172
*1424 FILLER_0_24_177
*1425 FILLER_0_24_18
*1426 FILLER_0_24_193
*1427 FILLER_0_24_197
*1428 FILLER_0_24_205
*1429 FILLER_0_24_211
*1430 FILLER_0_24_230
*1431 FILLER_0_24_26
*1432 FILLER_0_24_275
*1433 FILLER_0_24_280
*1434 FILLER_0_24_292
*1435 FILLER_0_24_3
*1436 FILLER_0_24_302
*1437 FILLER_0_24_316
*1438 FILLER_0_24_333
*1439 FILLER_0_24_42
*1440 FILLER_0_24_46
*1441 FILLER_0_24_61
*1442 FILLER_0_24_69
*1443 FILLER_0_24_7
*1444 FILLER_0_24_76
*1445 FILLER_0_24_85
*1446 FILLER_0_25_104
*1447 FILLER_0_25_11
*1448 FILLER_0_25_113
*1449 FILLER_0_25_125
*1450 FILLER_0_25_137
*1451 FILLER_0_25_143
*1452 FILLER_0_25_147
*1453 FILLER_0_25_165
*1454 FILLER_0_25_183
*1455 FILLER_0_25_189
*1456 FILLER_0_25_198
*1457 FILLER_0_25_210
*1458 FILLER_0_25_220
*1459 FILLER_0_25_225
*1460 FILLER_0_25_233
*1461 FILLER_0_25_238
*1462 FILLER_0_25_25
*1463 FILLER_0_25_250
*1464 FILLER_0_25_262
*1465 FILLER_0_25_270
*1466 FILLER_0_25_281
*1467 FILLER_0_25_289
*1468 FILLER_0_25_3
*1469 FILLER_0_25_300
*1470 FILLER_0_25_308
*1471 FILLER_0_25_314
*1472 FILLER_0_25_318
*1473 FILLER_0_25_322
*1474 FILLER_0_25_334
*1475 FILLER_0_25_36
*1476 FILLER_0_25_45
*1477 FILLER_0_25_53
*1478 FILLER_0_25_57
*1479 FILLER_0_25_65
*1480 FILLER_0_25_82
*1481 FILLER_0_26_113
*1482 FILLER_0_26_132
*1483 FILLER_0_26_144
*1484 FILLER_0_26_15
*1485 FILLER_0_26_157
*1486 FILLER_0_26_172
*1487 FILLER_0_26_180
*1488 FILLER_0_26_194
*1489 FILLER_0_26_197
*1490 FILLER_0_26_246
*1491 FILLER_0_26_25
*1492 FILLER_0_26_253
*1493 FILLER_0_26_271
*1494 FILLER_0_26_287
*1495 FILLER_0_26_29
*1496 FILLER_0_26_299
*1497 FILLER_0_26_3
*1498 FILLER_0_26_309
*1499 FILLER_0_26_317
*1500 FILLER_0_26_49
*1501 FILLER_0_26_67
*1502 FILLER_0_26_78
*1503 FILLER_0_26_85
*1504 FILLER_0_26_93
*1505 FILLER_0_27_111
*1506 FILLER_0_27_113
*1507 FILLER_0_27_126
*1508 FILLER_0_27_146
*1509 FILLER_0_27_162
*1510 FILLER_0_27_169
*1511 FILLER_0_27_173
*1512 FILLER_0_27_181
*1513 FILLER_0_27_193
*1514 FILLER_0_27_205
*1515 FILLER_0_27_225
*1516 FILLER_0_27_229
*1517 FILLER_0_27_23
*1518 FILLER_0_27_246
*1519 FILLER_0_27_250
*1520 FILLER_0_27_269
*1521 FILLER_0_27_275
*1522 FILLER_0_27_279
*1523 FILLER_0_27_281
*1524 FILLER_0_27_295
*1525 FILLER_0_27_3
*1526 FILLER_0_27_304
*1527 FILLER_0_27_316
*1528 FILLER_0_27_322
*1529 FILLER_0_27_334
*1530 FILLER_0_27_35
*1531 FILLER_0_27_44
*1532 FILLER_0_27_53
*1533 FILLER_0_27_57
*1534 FILLER_0_27_66
*1535 FILLER_0_27_70
*1536 FILLER_0_27_91
*1537 FILLER_0_27_99
*1538 FILLER_0_28_103
*1539 FILLER_0_28_110
*1540 FILLER_0_28_122
*1541 FILLER_0_28_13
*1542 FILLER_0_28_138
*1543 FILLER_0_28_141
*1544 FILLER_0_28_154
*1545 FILLER_0_28_161
*1546 FILLER_0_28_169
*1547 FILLER_0_28_175
*1548 FILLER_0_28_185
*1549 FILLER_0_28_21
*1550 FILLER_0_28_214
*1551 FILLER_0_28_225
*1552 FILLER_0_28_248
*1553 FILLER_0_28_261
*1554 FILLER_0_28_265
*1555 FILLER_0_28_3
*1556 FILLER_0_28_305
*1557 FILLER_0_28_309
*1558 FILLER_0_28_318
*1559 FILLER_0_28_32
*1560 FILLER_0_28_40
*1561 FILLER_0_28_52
*1562 FILLER_0_28_64
*1563 FILLER_0_28_7
*1564 FILLER_0_28_75
*1565 FILLER_0_28_83
*1566 FILLER_0_28_85
*1567 FILLER_0_28_91
*1568 FILLER_0_28_95
*1569 FILLER_0_29_106
*1570 FILLER_0_29_12
*1571 FILLER_0_29_128
*1572 FILLER_0_29_132
*1573 FILLER_0_29_150
*1574 FILLER_0_29_157
*1575 FILLER_0_29_173
*1576 FILLER_0_29_181
*1577 FILLER_0_29_193
*1578 FILLER_0_29_200
*1579 FILLER_0_29_208
*1580 FILLER_0_29_217
*1581 FILLER_0_29_223
*1582 FILLER_0_29_225
*1583 FILLER_0_29_229
*1584 FILLER_0_29_250
*1585 FILLER_0_29_275
*1586 FILLER_0_29_279
*1587 FILLER_0_29_281
*1588 FILLER_0_29_285
*1589 FILLER_0_29_294
*1590 FILLER_0_29_3
*1591 FILLER_0_29_306
*1592 FILLER_0_29_318
*1593 FILLER_0_29_32
*1594 FILLER_0_29_330
*1595 FILLER_0_29_334
*1596 FILLER_0_29_46
*1597 FILLER_0_29_53
*1598 FILLER_0_29_70
*1599 FILLER_0_29_74
*1600 FILLER_0_29_82
*1601 FILLER_0_29_94
*1602 FILLER_0_2_104
*1603 FILLER_0_2_116
*1604 FILLER_0_2_128
*1605 FILLER_0_2_147
*1606 FILLER_0_2_15
*1607 FILLER_0_2_159
*1608 FILLER_0_2_168
*1609 FILLER_0_2_176
*1610 FILLER_0_2_195
*1611 FILLER_0_2_197
*1612 FILLER_0_2_209
*1613 FILLER_0_2_221
*1614 FILLER_0_2_233
*1615 FILLER_0_2_245
*1616 FILLER_0_2_251
*1617 FILLER_0_2_253
*1618 FILLER_0_2_265
*1619 FILLER_0_2_27
*1620 FILLER_0_2_277
*1621 FILLER_0_2_289
*1622 FILLER_0_2_29
*1623 FILLER_0_2_3
*1624 FILLER_0_2_301
*1625 FILLER_0_2_307
*1626 FILLER_0_2_309
*1627 FILLER_0_2_321
*1628 FILLER_0_2_333
*1629 FILLER_0_2_41
*1630 FILLER_0_2_53
*1631 FILLER_0_2_61
*1632 FILLER_0_2_71
*1633 FILLER_0_2_83
*1634 FILLER_0_2_88
*1635 FILLER_0_30_103
*1636 FILLER_0_30_11
*1637 FILLER_0_30_115
*1638 FILLER_0_30_122
*1639 FILLER_0_30_130
*1640 FILLER_0_30_138
*1641 FILLER_0_30_144
*1642 FILLER_0_30_154
*1643 FILLER_0_30_166
*1644 FILLER_0_30_172
*1645 FILLER_0_30_180
*1646 FILLER_0_30_205
*1647 FILLER_0_30_209
*1648 FILLER_0_30_23
*1649 FILLER_0_30_232
*1650 FILLER_0_30_244
*1651 FILLER_0_30_253
*1652 FILLER_0_30_265
*1653 FILLER_0_30_27
*1654 FILLER_0_30_277
*1655 FILLER_0_30_29
*1656 FILLER_0_30_295
*1657 FILLER_0_30_3
*1658 FILLER_0_30_305
*1659 FILLER_0_30_309
*1660 FILLER_0_30_317
*1661 FILLER_0_30_41
*1662 FILLER_0_30_64
*1663 FILLER_0_30_78