*SPEF "ieee 1481-1999"
*DESIGN "tt_um_I2C_to_SPI"
*DATE "05:10:28 Friday April 19, 2024"
*VENDOR "The OpenROAD Project"
*PROGRAM "OpenROAD"
*VERSION "0889970d1790a2617e69f253221b8bd7626e51dc"
*DESIGN_FLOW "NAME_SCOPE LOCAL" "PIN_CAP NONE"
*DIVIDER /
*DELIMITER :
*BUS_DELIMITER []
*T_UNIT 1 NS
*C_UNIT 1 PF
*R_UNIT 1 OHM
*L_UNIT 1 HENRY

*NAME_MAP
*3 clk
*4 ena
*5 rst_n
*6 ui_in[0]
*7 ui_in[1]
*8 ui_in[2]
*9 ui_in[3]
*10 ui_in[4]
*11 ui_in[5]
*12 ui_in[6]
*13 ui_in[7]
*14 uio_in[0]
*15 uio_in[1]
*16 uio_in[2]
*17 uio_in[3]
*18 uio_in[4]
*19 uio_in[5]
*20 uio_in[6]
*21 uio_in[7]
*22 uio_oe[0]
*23 net20
*24 net21
*25 net22
*26 net23
*27 net24
*28 net25
*29 net26
*30 uio_out[0]
*31 uio_out[1]
*32 net27
*33 net28
*34 net29
*35 net30
*36 net31
*37 net32
*38 uo_out[0]
*39 uo_out[1]
*40 uo_out[2]
*41 net36
*42 uo_out[4]
*43 net33
*44 net34
*45 net35
*46 _0000_
*47 _0001_
*48 _0002_
*49 _0003_
*50 _0004_
*51 _0005_
*52 _0006_
*53 _0007_
*54 _0008_
*55 _0009_
*56 _0010_
*57 _0011_
*58 _0012_
*59 _0013_
*60 _0014_
*61 _0015_
*62 _0016_
*63 _0017_
*64 _0018_
*65 _0019_
*66 _0020_
*67 _0021_
*68 _0022_
*69 _0023_
*70 _0024_
*71 _0025_
*72 _0026_
*73 _0027_
*74 _0028_
*75 _0029_
*76 _0030_
*77 _0031_
*78 _0032_
*79 _0033_
*80 _0034_
*81 _0035_
*82 _0036_
*83 _0037_
*84 _0038_
*85 _0039_
*86 _0040_
*87 _0041_
*88 _0042_
*89 _0043_
*90 _0044_
*91 _0045_
*92 _0046_
*93 _0047_
*94 _0048_
*95 _0049_
*96 _0050_
*97 _0051_
*98 _0052_
*99 _0053_
*100 _0054_
*101 _0055_
*102 _0056_
*103 _0057_
*104 _0058_
*105 _0059_
*106 _0060_
*107 _0061_
*108 _0062_
*109 _0063_
*110 _0064_
*111 _0065_
*112 _0066_
*113 _0067_
*114 _0068_
*115 _0069_
*116 _0070_
*117 _0071_
*118 _0072_
*119 _0073_
*120 _0074_
*121 _0075_
*122 _0076_
*123 _0077_
*124 _0078_
*125 _0079_
*126 _0080_
*127 _0081_
*128 _0082_
*129 _0083_
*130 _0084_
*131 _0085_
*132 _0086_
*133 _0087_
*134 _0088_
*135 _0089_
*136 _0090_
*137 _0091_
*138 _0092_
*139 _0093_
*140 _0094_
*141 _0095_
*142 _0096_
*143 _0097_
*144 _0098_
*145 _0099_
*146 _0100_
*147 _0101_
*148 _0102_
*149 _0103_
*150 _0104_
*151 _0105_
*152 _0106_
*153 _0107_
*154 _0108_
*155 _0109_
*156 _0110_
*157 _0111_
*158 _0112_
*159 _0113_
*160 _0114_
*161 _0115_
*162 _0116_
*163 _0117_
*164 _0118_
*165 _0119_
*166 _0120_
*167 _0121_
*168 _0122_
*169 _0123_
*170 _0124_
*171 _0125_
*172 _0126_
*173 _0127_
*174 _0128_
*175 _0129_
*176 _0130_
*177 _0131_
*178 _0132_
*179 _0133_
*180 _0134_
*181 _0135_
*182 _0136_
*183 _0137_
*184 _0138_
*185 _0139_
*186 _0140_
*187 _0141_
*188 _0142_
*189 _0143_
*190 _0144_
*191 _0145_
*192 _0146_
*193 _0147_
*194 _0148_
*195 _0149_
*196 _0150_
*197 _0151_
*198 _0152_
*199 _0153_
*200 _0154_
*201 _0155_
*202 _0156_
*203 _0157_
*204 _0158_
*205 _0159_
*206 _0160_
*207 _0161_
*208 _0162_
*209 _0163_
*210 _0164_
*211 _0165_
*212 _0166_
*213 _0167_
*214 _0168_
*215 _0169_
*216 _0170_
*217 _0171_
*218 _0172_
*219 _0173_
*220 _0174_
*221 _0175_
*222 _0176_
*223 _0177_
*224 _0178_
*225 _0179_
*226 _0180_
*227 _0181_
*228 _0182_
*229 _0183_
*230 _0184_
*231 _0185_
*232 _0186_
*233 _0187_
*234 _0188_
*235 _0189_
*236 _0190_
*237 _0191_
*238 _0192_
*239 _0193_
*240 _0194_
*241 _0195_
*242 _0196_
*243 _0197_
*244 _0198_
*245 _0199_
*246 _0200_
*247 _0201_
*248 _0202_
*249 _0203_
*250 _0204_
*251 _0205_
*252 _0206_
*253 _0207_
*254 _0208_
*255 _0209_
*256 _0210_
*257 _0211_
*258 _0212_
*259 _0213_
*260 _0214_
*261 _0215_
*262 _0216_
*263 _0217_
*264 _0218_
*265 _0219_
*266 _0220_
*267 _0221_
*268 _0222_
*269 _0223_
*270 _0224_
*271 _0225_
*272 _0226_
*273 _0227_
*274 _0228_
*275 _0229_
*276 _0230_
*277 _0231_
*278 _0232_
*279 _0233_
*280 _0234_
*281 _0235_
*282 _0236_
*283 _0237_
*284 _0238_
*285 _0239_
*286 _0240_
*287 _0241_
*288 _0242_
*289 _0243_
*290 _0244_
*291 _0245_
*292 _0246_
*293 _0247_
*294 _0248_
*295 _0249_
*296 _0250_
*297 _0251_
*298 _0252_
*299 _0253_
*300 _0254_
*301 _0255_
*302 _0256_
*303 _0257_
*304 _0258_
*305 _0259_
*306 _0260_
*307 _0261_
*308 _0262_
*309 _0263_
*310 _0264_
*311 _0265_
*312 _0266_
*313 _0267_
*314 _0268_
*315 _0269_
*316 _0270_
*317 _0271_
*318 _0272_
*319 _0273_
*320 _0274_
*321 _0275_
*322 _0276_
*323 _0277_
*324 _0278_
*325 _0279_
*326 _0280_
*327 _0281_
*328 _0282_
*329 _0283_
*330 _0284_
*331 _0285_
*332 _0286_
*333 _0287_
*334 _0288_
*335 _0289_
*336 _0290_
*337 _0291_
*338 _0292_
*339 _0293_
*340 _0294_
*341 _0295_
*342 _0296_
*343 _0297_
*344 _0298_
*345 _0299_
*346 _0300_
*347 _0301_
*348 _0302_
*349 _0303_
*350 _0304_
*351 _0305_
*352 _0306_
*353 _0307_
*354 _0308_
*355 _0309_
*356 _0310_
*357 _0311_
*358 _0312_
*359 _0313_
*360 _0314_
*361 _0315_
*362 _0316_
*363 _0317_
*364 _0318_
*365 _0319_
*366 _0320_
*367 _0321_
*368 _0322_
*369 _0323_
*370 _0324_
*371 _0325_
*372 _0326_
*373 _0327_
*374 _0328_
*375 _0329_
*376 _0330_
*377 _0331_
*378 _0332_
*379 _0333_
*380 _0334_
*381 _0335_
*382 _0336_
*383 _0337_
*384 _0338_
*385 _0339_
*386 _0340_
*387 _0341_
*388 _0342_
*389 _0343_
*390 _0344_
*391 _0345_
*392 _0346_
*393 _0347_
*394 _0348_
*395 _0349_
*396 _0350_
*397 _0351_
*398 _0352_
*399 _0353_
*400 _0354_
*401 _0355_
*402 _0356_
*403 _0357_
*404 _0358_
*405 _0359_
*406 _0360_
*407 _0361_
*408 _0362_
*409 _0363_
*410 _0364_
*411 _0365_
*412 _0366_
*413 _0367_
*414 _0368_
*415 _0369_
*416 _0370_
*417 _0371_
*418 _0372_
*419 _0373_
*420 _0374_
*421 _0375_
*422 _0376_
*423 _0377_
*424 _0378_
*425 _0379_
*426 _0380_
*427 _0381_
*428 _0382_
*429 _0383_
*430 _0384_
*431 _0385_
*432 _0386_
*433 _0387_
*434 _0388_
*435 _0389_
*436 _0390_
*437 _0391_
*438 _0392_
*439 _0393_
*440 _0394_
*441 _0395_
*442 _0396_
*443 _0397_
*444 _0398_
*445 _0399_
*446 _0400_
*447 _0401_
*448 _0402_
*449 _0403_
*450 _0404_
*451 _0405_
*452 _0406_
*453 _0407_
*454 _0408_
*455 _0409_
*456 _0410_
*457 _0411_
*458 _0412_
*459 _0413_
*460 _0414_
*461 _0415_
*462 _0416_
*463 _0417_
*464 _0418_
*465 _0419_
*466 _0420_
*467 _0421_
*468 _0422_
*469 _0423_
*470 _0424_
*471 _0425_
*472 _0426_
*473 _0427_
*474 _0428_
*475 _0429_
*476 _0430_
*477 _0431_
*478 _0432_
*479 _0433_
*480 _0434_
*481 _0435_
*482 _0436_
*483 _0437_
*484 _0438_
*485 _0439_
*486 _0440_
*487 _0441_
*488 _0442_
*489 _0443_
*490 _0444_
*491 _0445_
*492 _0446_
*493 _0447_
*494 _0448_
*495 _0449_
*496 _0450_
*497 _0451_
*498 _0452_
*499 _0453_
*500 _0454_
*501 _0455_
*502 _0456_
*503 _0457_
*504 _0458_
*505 _0459_
*506 _0460_
*507 _0461_
*508 _0462_
*509 _0463_
*510 _0464_
*511 _0465_
*512 _0466_
*513 _0467_
*514 _0468_
*515 _0469_
*516 _0470_
*517 _0471_
*518 _0472_
*519 _0473_
*520 _0474_
*521 _0475_
*522 _0476_
*523 _0477_
*524 _0478_
*525 _0479_
*526 _0480_
*527 _0481_
*528 _0482_
*529 _0483_
*530 _0484_
*531 _0485_
*532 _0486_
*533 _0487_
*534 _0488_
*535 _0489_
*536 _0490_
*537 _0491_
*538 _0492_
*539 _0493_
*540 _0494_
*541 _0495_
*542 _0496_
*543 _0497_
*544 _0498_
*545 _0499_
*546 _0500_
*547 _0501_
*548 _0502_
*549 _0503_
*550 _0504_
*551 _0505_
*552 _0506_
*553 _0507_
*554 _0508_
*555 _0509_
*556 _0510_
*557 _0511_
*558 _0512_
*559 _0513_
*560 _0514_
*561 _0515_
*562 _0516_
*563 _0517_
*564 _0518_
*565 _0519_
*566 _0520_
*567 _0521_
*568 _0522_
*569 _0523_
*570 _0524_
*571 _0525_
*572 _0526_
*573 _0527_
*574 _0528_
*575 _0529_
*576 _0530_
*577 _0531_
*578 _0532_
*579 _0533_
*580 _0534_
*581 _0535_
*582 _0536_
*583 _0537_
*584 _0538_
*585 _0539_
*586 _0540_
*587 _0541_
*588 _0542_
*589 _0543_
*590 _0544_
*591 _0545_
*592 _0546_
*593 _0547_
*594 _0548_
*595 _0549_
*596 _0550_
*597 _0551_
*598 _0552_
*599 _0553_
*600 _0554_
*601 _0555_
*602 _0556_
*603 _0557_
*604 _0558_
*605 _0559_
*606 _0560_
*607 _0561_
*608 _0562_
*609 _0563_
*610 _0564_
*611 _0565_
*612 _0566_
*613 _0567_
*614 _0568_
*615 _0569_
*616 _0570_
*617 _0571_
*618 _0572_
*619 _0573_
*620 _0574_
*621 _0575_
*622 _0576_
*623 _0577_
*624 _0578_
*625 _0579_
*626 _0580_
*627 _0581_
*628 _0582_
*629 _0583_
*630 _0584_
*631 _0585_
*632 _0586_
*633 _0587_
*634 _0588_
*635 _0589_
*636 _0590_
*637 _0591_
*638 _0592_
*639 _0593_
*640 _0594_
*641 _0595_
*642 _0596_
*643 _0597_
*644 _0598_
*645 clknet_0_clk
*646 clknet_4_0_0_clk
*647 clknet_4_10_0_clk
*648 clknet_4_11_0_clk
*649 clknet_4_12_0_clk
*650 clknet_4_13_0_clk
*651 clknet_4_14_0_clk
*652 clknet_4_15_0_clk
*653 clknet_4_1_0_clk
*654 clknet_4_2_0_clk
*655 clknet_4_3_0_clk
*656 clknet_4_4_0_clk
*657 clknet_4_5_0_clk
*658 clknet_4_6_0_clk
*659 clknet_4_7_0_clk
*660 clknet_4_8_0_clk
*661 clknet_4_9_0_clk
*662 net1
*663 net10
*664 net100
*665 net101
*666 net102
*667 net103
*668 net104
*669 net105
*670 net106
*671 net107
*672 net108
*673 net109
*674 net11
*675 net110
*676 net111
*677 net112
*678 net113
*679 net114
*680 net115
*681 net116
*682 net117
*683 net118
*684 net119
*685 net12
*686 net120
*687 net121
*688 net122
*689 net123
*690 net124
*691 net125
*692 net126
*693 net127
*694 net128
*695 net129
*696 net13
*697 net130
*698 net131
*699 net132
*700 net133
*701 net134
*702 net135
*703 net136
*704 net137
*705 net138
*706 net139
*707 net14
*708 net140
*709 net141
*710 net142
*711 net143
*712 net144
*713 net145
*714 net146
*715 net147
*716 net148
*717 net149
*718 net15
*719 net150
*720 net151
*721 net152
*722 net153
*723 net154
*724 net155
*725 net156
*726 net157
*727 net158
*728 net159
*729 net16
*730 net160
*731 net161
*732 net162
*733 net163
*734 net164
*735 net165
*736 net166
*737 net167
*738 net168
*739 net169
*740 net17
*741 net170
*742 net171
*743 net172
*744 net173
*745 net174
*746 net175
*747 net176
*748 net177
*749 net178
*750 net179
*751 net18
*752 net180
*753 net181
*754 net182
*755 net183
*756 net184
*757 net185
*758 net19
*759 net2
*760 net3
*761 net37
*762 net38
*763 net39
*764 net4
*765 net40
*766 net41
*767 net42
*768 net43
*769 net44
*770 net45
*771 net46
*772 net47
*773 net48
*774 net49
*775 net5
*776 net50
*777 net51
*778 net52
*779 net53
*780 net54
*781 net55
*782 net56
*783 net57
*784 net58
*785 net59
*786 net6
*787 net60
*788 net61
*789 net62
*790 net63
*791 net64
*792 net65
*793 net66
*794 net67
*795 net68
*796 net69
*797 net7
*798 net70
*799 net71
*800 net72
*801 net73
*802 net74
*803 net75
*804 net76
*805 net77
*806 net78
*807 net79
*808 net8
*809 net80
*810 net81
*811 net82
*812 net83
*813 net84
*814 net85
*815 net86
*816 net87
*817 net88
*818 net89
*819 net9
*820 net90
*821 net91
*822 net92
*823 net93
*824 net94
*825 net95
*826 net96
*827 net97
*828 net98
*829 net99
*830 temp_data_oe2
*831 temp_data_out2
*832 wrapper_inst\.i2c_clk_in
*833 wrapper_inst\.i2c_data_in
*834 wrapper_inst\.i2c_data_oe
*835 wrapper_inst\.i2c_data_out
*836 wrapper_inst\.i2c_inst\.gf_i2c_clk_in
*837 wrapper_inst\.i2c_inst\.gf_i2c_data_in
*838 wrapper_inst\.i2c_inst\.i2c_data_in_r\[0\]
*839 wrapper_inst\.i2c_inst\.i2c_data_in_r\[1\]
*840 wrapper_inst\.i2c_inst\.i2c_data_in_r\[2\]
*841 wrapper_inst\.i2c_inst\.i2c_data_in_r\[3\]
*842 wrapper_inst\.i2c_inst\.i2c_data_in_r\[4\]
*843 wrapper_inst\.i2c_inst\.i2c_data_in_r\[5\]
*844 wrapper_inst\.i2c_inst\.i2c_data_in_r\[6\]
*845 wrapper_inst\.i2c_inst\.i2c_data_in_r\[7\]
*846 wrapper_inst\.i2c_inst\.i2c_data_in_r\[8\]
*847 wrapper_inst\.i2c_inst\.i2c_data_mux_select_r
*848 wrapper_inst\.i2c_inst\.i_gf_i2c_clk_in\.buffer\[0\]
*849 wrapper_inst\.i2c_inst\.i_gf_i2c_clk_in\.buffer\[1\]
*850 wrapper_inst\.i2c_inst\.i_gf_i2c_clk_in\.buffer\[2\]
*851 wrapper_inst\.i2c_inst\.i_gf_i2c_clk_in\.in_reg
*852 wrapper_inst\.i2c_inst\.i_gf_i2c_data_in\.buffer\[0\]
*853 wrapper_inst\.i2c_inst\.i_gf_i2c_data_in\.buffer\[1\]
*854 wrapper_inst\.i2c_inst\.i_gf_i2c_data_in\.buffer\[2\]
*855 wrapper_inst\.i2c_inst\.i_gf_i2c_data_in\.in_reg
*856 wrapper_inst\.i2c_inst\.i_i2c_to_wb_fsm\.bit_count\[0\]
*857 wrapper_inst\.i2c_inst\.i_i2c_to_wb_fsm\.bit_count\[1\]
*858 wrapper_inst\.i2c_inst\.i_i2c_to_wb_fsm\.bit_count\[2\]
*859 wrapper_inst\.i2c_inst\.i_i2c_to_wb_fsm\.bit_count\[3\]
*860 wrapper_inst\.i2c_inst\.i_i2c_to_wb_fsm\.next_state\[0\]
*861 wrapper_inst\.i2c_inst\.i_i2c_to_wb_fsm\.next_state\[1\]
*862 wrapper_inst\.i2c_inst\.i_i2c_to_wb_fsm\.next_state\[2\]
*863 wrapper_inst\.i2c_inst\.i_i2c_to_wb_fsm\.next_state\[3\]
*864 wrapper_inst\.i2c_inst\.i_i2c_to_wb_fsm\.next_state\[4\]
*865 wrapper_inst\.i2c_inst\.i_i2c_to_wb_fsm\.next_state\[5\]
*866 wrapper_inst\.i2c_inst\.i_i2c_to_wb_fsm\.next_state\[6\]
*867 wrapper_inst\.i2c_inst\.i_i2c_to_wb_fsm\.next_state\[7\]
*868 wrapper_inst\.i2c_inst\.i_i2c_to_wb_fsm\.state\[0\]
*869 wrapper_inst\.i2c_inst\.i_i2c_to_wb_fsm\.state\[1\]
*870 wrapper_inst\.i2c_inst\.i_i2c_to_wb_fsm\.state\[2\]
*871 wrapper_inst\.i2c_inst\.i_i2c_to_wb_fsm\.state\[3\]
*872 wrapper_inst\.i2c_inst\.i_i2c_to_wb_fsm\.state\[4\]
*873 wrapper_inst\.i2c_inst\.i_i2c_to_wb_fsm\.state\[5\]
*874 wrapper_inst\.i2c_inst\.i_i2c_to_wb_fsm\.state\[6\]
*875 wrapper_inst\.i2c_inst\.i_i2c_to_wb_fsm\.state\[7\]
*876 wrapper_inst\.i2c_inst\.i_i2c_to_wb_if\.i2c_offset_r\[0\]
*877 wrapper_inst\.i2c_inst\.i_i2c_to_wb_if\.i2c_offset_r\[1\]
*878 wrapper_inst\.i2c_inst\.i_i2c_to_wb_if\.i2c_offset_r\[2\]
*879 wrapper_inst\.i2c_inst\.i_i2c_to_wb_if\.i2c_offset_r\[3\]
*880 wrapper_inst\.i2c_inst\.i_i2c_to_wb_if\.i2c_offset_r\[4\]
*881 wrapper_inst\.i2c_inst\.i_i2c_to_wb_if\.i2c_offset_r\[5\]
*882 wrapper_inst\.i2c_inst\.i_i2c_to_wb_if\.i2c_offset_r\[6\]
*883 wrapper_inst\.i2c_inst\.i_i2c_to_wb_if\.i2c_offset_r\[7\]
*884 wrapper_inst\.i2c_inst\.i_i2c_to_wb_if\.next_state\[0\]
*885 wrapper_inst\.i2c_inst\.i_i2c_to_wb_if\.next_state\[1\]
*886 wrapper_inst\.i2c_inst\.i_i2c_to_wb_if\.next_state\[2\]
*887 wrapper_inst\.i2c_inst\.i_i2c_to_wb_if\.next_state\[3\]
*888 wrapper_inst\.i2c_inst\.i_i2c_to_wb_if\.next_state\[4\]
*889 wrapper_inst\.i2c_inst\.i_i2c_to_wb_if\.state\[0\]
*890 wrapper_inst\.i2c_inst\.i_i2c_to_wb_if\.state\[1\]
*891 wrapper_inst\.i2c_inst\.i_i2c_to_wb_if\.state\[2\]
*892 wrapper_inst\.i2c_inst\.i_i2c_to_wb_if\.state\[3\]
*893 wrapper_inst\.i2c_inst\.i_i2c_to_wb_if\.state\[4\]
*894 wrapper_inst\.i2c_inst\.i_i2c_to_wb_if\.wb_ack_i
*895 wrapper_inst\.i2c_inst\.i_i2c_to_wb_if\.wb_data_i\[0\]
*896 wrapper_inst\.i2c_inst\.i_i2c_to_wb_if\.wb_data_i\[1\]
*897 wrapper_inst\.i2c_inst\.i_i2c_to_wb_if\.wb_data_i\[2\]
*898 wrapper_inst\.i2c_inst\.i_i2c_to_wb_if\.wb_data_i\[3\]
*899 wrapper_inst\.i2c_inst\.i_i2c_to_wb_if\.wb_data_i\[4\]
*900 wrapper_inst\.i2c_inst\.i_i2c_to_wb_if\.wb_data_i\[5\]
*901 wrapper_inst\.i2c_inst\.i_i2c_to_wb_if\.wb_data_i\[6\]
*902 wrapper_inst\.i2c_inst\.i_i2c_to_wb_if\.wb_data_i\[7\]
*903 wrapper_inst\.mosi_o
*904 wrapper_inst\.sck_o
*905 wrapper_inst\.spi_inst\.bcnt\[0\]
*906 wrapper_inst\.spi_inst\.bcnt\[1\]
*907 wrapper_inst\.spi_inst\.bcnt\[2\]
*908 wrapper_inst\.spi_inst\.clkcnt\[0\]
*909 wrapper_inst\.spi_inst\.clkcnt\[10\]
*910 wrapper_inst\.spi_inst\.clkcnt\[11\]
*911 wrapper_inst\.spi_inst\.clkcnt\[1\]
*912 wrapper_inst\.spi_inst\.clkcnt\[2\]
*913 wrapper_inst\.spi_inst\.clkcnt\[3\]
*914 wrapper_inst\.spi_inst\.clkcnt\[4\]
*915 wrapper_inst\.spi_inst\.clkcnt\[5\]
*916 wrapper_inst\.spi_inst\.clkcnt\[6\]
*917 wrapper_inst\.spi_inst\.clkcnt\[7\]
*918 wrapper_inst\.spi_inst\.clkcnt\[8\]
*919 wrapper_inst\.spi_inst\.clkcnt\[9\]
*920 wrapper_inst\.spi_inst\.cpha
*921 wrapper_inst\.spi_inst\.cpol
*922 wrapper_inst\.spi_inst\.dwom
*923 wrapper_inst\.spi_inst\.espr\[0\]
*924 wrapper_inst\.spi_inst\.espr\[1\]
*925 wrapper_inst\.spi_inst\.espr\[2\]
*926 wrapper_inst\.spi_inst\.espr\[3\]
*927 wrapper_inst\.spi_inst\.icnt\[0\]
*928 wrapper_inst\.spi_inst\.icnt\[1\]
*929 wrapper_inst\.spi_inst\.rfifo\.din\[1\]
*930 wrapper_inst\.spi_inst\.rfifo\.din\[2\]
*931 wrapper_inst\.spi_inst\.rfifo\.din\[3\]
*932 wrapper_inst\.spi_inst\.rfifo\.din\[4\]
*933 wrapper_inst\.spi_inst\.rfifo\.din\[5\]
*934 wrapper_inst\.spi_inst\.rfifo\.din\[6\]
*935 wrapper_inst\.spi_inst\.rfifo\.din\[7\]
*936 wrapper_inst\.spi_inst\.rfifo\.gb
*937 wrapper_inst\.spi_inst\.rfifo\.mem\[0\]\[0\]
*938 wrapper_inst\.spi_inst\.rfifo\.mem\[0\]\[1\]
*939 wrapper_inst\.spi_inst\.rfifo\.mem\[0\]\[2\]
*940 wrapper_inst\.spi_inst\.rfifo\.mem\[0\]\[3\]
*941 wrapper_inst\.spi_inst\.rfifo\.mem\[0\]\[4\]
*942 wrapper_inst\.spi_inst\.rfifo\.mem\[0\]\[5\]
*943 wrapper_inst\.spi_inst\.rfifo\.mem\[0\]\[6\]
*944 wrapper_inst\.spi_inst\.rfifo\.mem\[0\]\[7\]
*945 wrapper_inst\.spi_inst\.rfifo\.mem\[1\]\[0\]
*946 wrapper_inst\.spi_inst\.rfifo\.mem\[1\]\[1\]
*947 wrapper_inst\.spi_inst\.rfifo\.mem\[1\]\[2\]
*948 wrapper_inst\.spi_inst\.rfifo\.mem\[1\]\[3\]
*949 wrapper_inst\.spi_inst\.rfifo\.mem\[1\]\[4\]
*950 wrapper_inst\.spi_inst\.rfifo\.mem\[1\]\[5\]
*951 wrapper_inst\.spi_inst\.rfifo\.mem\[1\]\[6\]
*952 wrapper_inst\.spi_inst\.rfifo\.mem\[1\]\[7\]
*953 wrapper_inst\.spi_inst\.rfifo\.mem\[2\]\[0\]
*954 wrapper_inst\.spi_inst\.rfifo\.mem\[2\]\[1\]
*955 wrapper_inst\.spi_inst\.rfifo\.mem\[2\]\[2\]
*956 wrapper_inst\.spi_inst\.rfifo\.mem\[2\]\[3\]
*957 wrapper_inst\.spi_inst\.rfifo\.mem\[2\]\[4\]
*958 wrapper_inst\.spi_inst\.rfifo\.mem\[2\]\[5\]
*959 wrapper_inst\.spi_inst\.rfifo\.mem\[2\]\[6\]
*960 wrapper_inst\.spi_inst\.rfifo\.mem\[2\]\[7\]
*961 wrapper_inst\.spi_inst\.rfifo\.mem\[3\]\[0\]
*962 wrapper_inst\.spi_inst\.rfifo\.mem\[3\]\[1\]
*963 wrapper_inst\.spi_inst\.rfifo\.mem\[3\]\[2\]
*964 wrapper_inst\.spi_inst\.rfifo\.mem\[3\]\[3\]
*965 wrapper_inst\.spi_inst\.rfifo\.mem\[3\]\[4\]
*966 wrapper_inst\.spi_inst\.rfifo\.mem\[3\]\[5\]
*967 wrapper_inst\.spi_inst\.rfifo\.mem\[3\]\[6\]
*968 wrapper_inst\.spi_inst\.rfifo\.mem\[3\]\[7\]
*969 wrapper_inst\.spi_inst\.rfifo\.rp\[0\]
*970 wrapper_inst\.spi_inst\.rfifo\.rp\[1\]
*971 wrapper_inst\.spi_inst\.rfifo\.we
*972 wrapper_inst\.spi_inst\.rfifo\.wp\[0\]
*973 wrapper_inst\.spi_inst\.rfifo\.wp\[1\]
*974 wrapper_inst\.spi_inst\.spe
*975 wrapper_inst\.spi_inst\.sper\[2\]
*976 wrapper_inst\.spi_inst\.sper\[3\]
*977 wrapper_inst\.spi_inst\.sper\[4\]
*978 wrapper_inst\.spi_inst\.sper\[5\]
*979 wrapper_inst\.spi_inst\.spie
*980 wrapper_inst\.spi_inst\.spif
*981 wrapper_inst\.spi_inst\.state\[0\]
*982 wrapper_inst\.spi_inst\.state\[1\]
*983 wrapper_inst\.spi_inst\.tcnt\[0\]
*984 wrapper_inst\.spi_inst\.tcnt\[1\]
*985 wrapper_inst\.spi_inst\.wcol
*986 wrapper_inst\.spi_inst\.wfifo\.gb
*987 wrapper_inst\.spi_inst\.wfifo\.mem\[0\]\[0\]
*988 wrapper_inst\.spi_inst\.wfifo\.mem\[0\]\[1\]
*989 wrapper_inst\.spi_inst\.wfifo\.mem\[0\]\[2\]
*990 wrapper_inst\.spi_inst\.wfifo\.mem\[0\]\[3\]
*991 wrapper_inst\.spi_inst\.wfifo\.mem\[0\]\[4\]
*992 wrapper_inst\.spi_inst\.wfifo\.mem\[0\]\[5\]
*993 wrapper_inst\.spi_inst\.wfifo\.mem\[0\]\[6\]
*994 wrapper_inst\.spi_inst\.wfifo\.mem\[0\]\[7\]
*995 wrapper_inst\.spi_inst\.wfifo\.mem\[1\]\[0\]
*996 wrapper_inst\.spi_inst\.wfifo\.mem\[1\]\[1\]
*997 wrapper_inst\.spi_inst\.wfifo\.mem\[1\]\[2\]
*998 wrapper_inst\.spi_inst\.wfifo\.mem\[1\]\[3\]
*999 wrapper_inst\.spi_inst\.wfifo\.mem\[1\]\[4\]
*1000 wrapper_inst\.spi_inst\.wfifo\.mem\[1\]\[5\]
*1001 wrapper_inst\.spi_inst\.wfifo\.mem\[1\]\[6\]
*1002 wrapper_inst\.spi_inst\.wfifo\.mem\[1\]\[7\]
*1003 wrapper_inst\.spi_inst\.wfifo\.mem\[2\]\[0\]
*1004 wrapper_inst\.spi_inst\.wfifo\.mem\[2\]\[1\]
*1005 wrapper_inst\.spi_inst\.wfifo\.mem\[2\]\[2\]
*1006 wrapper_inst\.spi_inst\.wfifo\.mem\[2\]\[3\]
*1007 wrapper_inst\.spi_inst\.wfifo\.mem\[2\]\[4\]
*1008 wrapper_inst\.spi_inst\.wfifo\.mem\[2\]\[5\]
*1009 wrapper_inst\.spi_inst\.wfifo\.mem\[2\]\[6\]
*1010 wrapper_inst\.spi_inst\.wfifo\.mem\[2\]\[7\]
*1011 wrapper_inst\.spi_inst\.wfifo\.mem\[3\]\[0\]
*1012 wrapper_inst\.spi_inst\.wfifo\.mem\[3\]\[1\]
*1013 wrapper_inst\.spi_inst\.wfifo\.mem\[3\]\[2\]
*1014 wrapper_inst\.spi_inst\.wfifo\.mem\[3\]\[3\]
*1015 wrapper_inst\.spi_inst\.wfifo\.mem\[3\]\[4\]
*1016 wrapper_inst\.spi_inst\.wfifo\.mem\[3\]\[5\]
*1017 wrapper_inst\.spi_inst\.wfifo\.mem\[3\]\[6\]
*1018 wrapper_inst\.spi_inst\.wfifo\.mem\[3\]\[7\]
*1019 wrapper_inst\.spi_inst\.wfifo\.re
*1020 wrapper_inst\.spi_inst\.wfifo\.rp\[0\]
*1021 wrapper_inst\.spi_inst\.wfifo\.rp\[1\]
*1022 wrapper_inst\.spi_inst\.wfifo\.wp\[0\]
*1023 wrapper_inst\.spi_inst\.wfifo\.wp\[1\]
*1024 ANTENNA_1
*1025 FILLER_0_0_109
*1026 FILLER_0_0_113
*1027 FILLER_0_0_121
*1028 FILLER_0_0_130
*1029 FILLER_0_0_138
*1030 FILLER_0_0_141
*1031 FILLER_0_0_15
*1032 FILLER_0_0_161
*1033 FILLER_0_0_167
*1034 FILLER_0_0_169
*1035 FILLER_0_0_178
*1036 FILLER_0_0_205
*1037 FILLER_0_0_220
*1038 FILLER_0_0_225
*1039 FILLER_0_0_237
*1040 FILLER_0_0_249
*1041 FILLER_0_0_253
*1042 FILLER_0_0_27
*1043 FILLER_0_0_276
*1044 FILLER_0_0_289
*1045 FILLER_0_0_29
*1046 FILLER_0_0_3
*1047 FILLER_0_0_301
*1048 FILLER_0_0_307
*1049 FILLER_0_0_309
*1050 FILLER_0_0_321
*1051 FILLER_0_0_333
*1052 FILLER_0_0_41
*1053 FILLER_0_0_52
*1054 FILLER_0_0_57
*1055 FILLER_0_0_69
*1056 FILLER_0_0_81
*1057 FILLER_0_0_85
*1058 FILLER_0_0_97
*1059 FILLER_0_10_107
*1060 FILLER_0_10_119
*1061 FILLER_0_10_127
*1062 FILLER_0_10_137
*1063 FILLER_0_10_141
*1064 FILLER_0_10_15
*1065 FILLER_0_10_161
*1066 FILLER_0_10_173
*1067 FILLER_0_10_185
*1068 FILLER_0_10_193
*1069 FILLER_0_10_197
*1070 FILLER_0_10_231
*1071 FILLER_0_10_244
*1072 FILLER_0_10_251
*1073 FILLER_0_10_253
*1074 FILLER_0_10_263
*1075 FILLER_0_10_27
*1076 FILLER_0_10_29
*1077 FILLER_0_10_3
*1078 FILLER_0_10_53
*1079 FILLER_0_10_81
*1080 FILLER_0_10_85
*1081 FILLER_0_11_104
*1082 FILLER_0_11_122
*1083 FILLER_0_11_144
*1084 FILLER_0_11_149
*1085 FILLER_0_11_15
*1086 FILLER_0_11_169
*1087 FILLER_0_11_201
*1088 FILLER_0_11_221
*1089 FILLER_0_11_234
*1090 FILLER_0_11_255
*1091 FILLER_0_11_265
*1092 FILLER_0_11_27
*1093 FILLER_0_11_292
*1094 FILLER_0_11_3
*1095 FILLER_0_11_300
*1096 FILLER_0_11_308
*1097 FILLER_0_11_312
*1098 FILLER_0_11_322
*1099 FILLER_0_11_332
*1100 FILLER_0_11_39
*1101 FILLER_0_11_81
*1102 FILLER_0_12_102
*1103 FILLER_0_12_115
*1104 FILLER_0_12_15
*1105 FILLER_0_12_158
*1106 FILLER_0_12_194
*1107 FILLER_0_12_197
*1108 FILLER_0_12_250
*1109 FILLER_0_12_27
*1110 FILLER_0_12_281
*1111 FILLER_0_12_29
*1112 FILLER_0_12_293
*1113 FILLER_0_12_3
*1114 FILLER_0_12_306
*1115 FILLER_0_12_309
*1116 FILLER_0_12_331
*1117 FILLER_0_12_41
*1118 FILLER_0_12_83
*1119 FILLER_0_12_98
*1120 FILLER_0_13_109
*1121 FILLER_0_13_113
*1122 FILLER_0_13_121
*1123 FILLER_0_13_15
*1124 FILLER_0_13_152
*1125 FILLER_0_13_160
*1126 FILLER_0_13_198
*1127 FILLER_0_13_206
*1128 FILLER_0_13_225
*1129 FILLER_0_13_233
*1130 FILLER_0_13_269
*1131 FILLER_0_13_27
*1132 FILLER_0_13_277
*1133 FILLER_0_13_281
*1134 FILLER_0_13_3
*1135 FILLER_0_13_35
*1136 FILLER_0_13_46
*1137 FILLER_0_13_54
*1138 FILLER_0_13_61
*1139 FILLER_0_13_74
*1140 FILLER_0_14_110
*1141 FILLER_0_14_135
*1142 FILLER_0_14_139
*1143 FILLER_0_14_141
*1144 FILLER_0_14_15
*1145 FILLER_0_14_153
*1146 FILLER_0_14_179
*1147 FILLER_0_14_194
*1148 FILLER_0_14_200
*1149 FILLER_0_14_212
*1150 FILLER_0_14_217
*1151 FILLER_0_14_225
*1152 FILLER_0_14_234
*1153 FILLER_0_14_251
*1154 FILLER_0_14_253
*1155 FILLER_0_14_265
*1156 FILLER_0_14_27
*1157 FILLER_0_14_277
*1158 FILLER_0_14_289
*1159 FILLER_0_14_3
*1160 FILLER_0_14_306
*1161 FILLER_0_14_309
*1162 FILLER_0_14_331
*1163 FILLER_0_14_52
*1164 FILLER_0_14_64
*1165 FILLER_0_14_72
*1166 FILLER_0_14_85
*1167 FILLER_0_14_98
*1168 FILLER_0_15_100
*1169 FILLER_0_15_110
*1170 FILLER_0_15_113
*1171 FILLER_0_15_125
*1172 FILLER_0_15_129
*1173 FILLER_0_15_15
*1174 FILLER_0_15_150
*1175 FILLER_0_15_156
*1176 FILLER_0_15_189
*1177 FILLER_0_15_196
*1178 FILLER_0_15_208
*1179 FILLER_0_15_217
*1180 FILLER_0_15_223
*1181 FILLER_0_15_233
*1182 FILLER_0_15_263
*1183 FILLER_0_15_267
*1184 FILLER_0_15_27
*1185 FILLER_0_15_278
*1186 FILLER_0_15_286
*1187 FILLER_0_15_3
*1188 FILLER_0_15_326
*1189 FILLER_0_15_55
*1190 FILLER_0_15_66
*1191 FILLER_0_15_72
*1192 FILLER_0_16_102
*1193 FILLER_0_16_124
*1194 FILLER_0_16_128
*1195 FILLER_0_16_15
*1196 FILLER_0_16_150
*1197 FILLER_0_16_195
*1198 FILLER_0_16_218
*1199 FILLER_0_16_23
*1200 FILLER_0_16_266
*1201 FILLER_0_16_289
*1202 FILLER_0_16_3
*1203 FILLER_0_16_301
*1204 FILLER_0_16_307
*1205 FILLER_0_16_309
*1206 FILLER_0_16_32
*1207 FILLER_0_16_334
*1208 FILLER_0_16_42
*1209 FILLER_0_16_76
*1210 FILLER_0_16_90
*1211 FILLER_0_17_129
*1212 FILLER_0_17_141
*1213 FILLER_0_17_15
*1214 FILLER_0_17_158
*1215 FILLER_0_17_162
*1216 FILLER_0_17_169
*1217 FILLER_0_17_173
*1218 FILLER_0_17_183
*1219 FILLER_0_17_217
*1220 FILLER_0_17_225
*1221 FILLER_0_17_241
*1222 FILLER_0_17_247
*1223 FILLER_0_17_260
*1224 FILLER_0_17_272
*1225 FILLER_0_17_277
*1226 FILLER_0_17_3
*1227 FILLER_0_17_306
*1228 FILLER_0_17_323
*1229 FILLER_0_17_334
*1230 FILLER_0_17_53
*1231 FILLER_0_17_60
*1232 FILLER_0_17_85
*1233 FILLER_0_17_97
*1234 FILLER_0_18_105
*1235 FILLER_0_18_109
*1236 FILLER_0_18_130
*1237 FILLER_0_18_136
*1238 FILLER_0_18_15
*1239 FILLER_0_18_157
*1240 FILLER_0_18_165
*1241 FILLER_0_18_193
*1242 FILLER_0_18_212
*1243 FILLER_0_18_220
*1244 FILLER_0_18_248
*1245 FILLER_0_18_253
*1246 FILLER_0_18_265
*1247 FILLER_0_18_27
*1248 FILLER_0_18_289
*1249 FILLER_0_18_29
*1250 FILLER_0_18_3
*1251 FILLER_0_18_303
*1252 FILLER_0_18_307
*1253 FILLER_0_18_309
*1254 FILLER_0_18_332
*1255 FILLER_0_18_41
*1256 FILLER_0_18_48
*1257 FILLER_0_18_56
*1258 FILLER_0_18_65
*1259 FILLER_0_18_73
*1260 FILLER_0_18_83
*1261 FILLER_0_18_93
*1262 FILLER_0_19_104
*1263 FILLER_0_19_113
*1264 FILLER_0_19_125
*1265 FILLER_0_19_132
*1266 FILLER_0_19_140
*1267 FILLER_0_19_15
*1268 FILLER_0_19_165
*1269 FILLER_0_19_189
*1270 FILLER_0_19_201
*1271 FILLER_0_19_213
*1272 FILLER_0_19_221
*1273 FILLER_0_19_225
*1274 FILLER_0_19_234
*1275 FILLER_0_19_246
*1276 FILLER_0_19_258
*1277 FILLER_0_19_264
*1278 FILLER_0_19_27
*1279 FILLER_0_19_279
*1280 FILLER_0_19_290
*1281 FILLER_0_19_3
*1282 FILLER_0_19_302
*1283 FILLER_0_19_318
*1284 FILLER_0_19_57
*1285 FILLER_0_19_69
*1286 FILLER_0_1_119
*1287 FILLER_0_1_15
*1288 FILLER_0_1_161
*1289 FILLER_0_1_167
*1290 FILLER_0_1_177
*1291 FILLER_0_1_203
*1292 FILLER_0_1_207
*1293 FILLER_0_1_241
*1294 FILLER_0_1_249
*1295 FILLER_0_1_27
*1296 FILLER_0_1_276
*1297 FILLER_0_1_281
*1298 FILLER_0_1_293
*1299 FILLER_0_1_3
*1300 FILLER_0_1_305
*1301 FILLER_0_1_317
*1302 FILLER_0_1_329
*1303 FILLER_0_1_39
*1304 FILLER_0_1_43
*1305 FILLER_0_1_73
*1306 FILLER_0_1_79
*1307 FILLER_0_20_100
*1308 FILLER_0_20_106
*1309 FILLER_0_20_127
*1310 FILLER_0_20_139
*1311 FILLER_0_20_15
*1312 FILLER_0_20_158
*1313 FILLER_0_20_170
*1314 FILLER_0_20_175
*1315 FILLER_0_20_195
*1316 FILLER_0_20_212
*1317 FILLER_0_20_23
*1318 FILLER_0_20_245
*1319 FILLER_0_20_251
*1320 FILLER_0_20_282
*1321 FILLER_0_20_294
*1322 FILLER_0_20_3
*1323 FILLER_0_20_302
*1324 FILLER_0_20_329
*1325 FILLER_0_20_57
*1326 FILLER_0_20_65
*1327 FILLER_0_20_71
*1328 FILLER_0_21_107
*1329 FILLER_0_21_15
*1330 FILLER_0_21_150
*1331 FILLER_0_21_164
*1332 FILLER_0_21_169
*1333 FILLER_0_21_204
*1334 FILLER_0_21_214
*1335 FILLER_0_21_223
*1336 FILLER_0_21_250
*1337 FILLER_0_21_259
*1338 FILLER_0_21_27
*1339 FILLER_0_21_290
*1340 FILLER_0_21_3
*1341 FILLER_0_21_332
*1342 FILLER_0_21_38
*1343 FILLER_0_21_48
*1344 FILLER_0_21_57
*1345 FILLER_0_21_99
*1346 FILLER_0_22_106
*1347 FILLER_0_22_118
*1348 FILLER_0_22_126
*1349 FILLER_0_22_130
*1350 FILLER_0_22_141
*1351 FILLER_0_22_164
*1352 FILLER_0_22_170
*1353 FILLER_0_22_194
*1354 FILLER_0_22_208
*1355 FILLER_0_22_212
*1356 FILLER_0_22_216
*1357 FILLER_0_22_248
*1358 FILLER_0_22_25
*1359 FILLER_0_22_253
*1360 FILLER_0_22_267
*1361 FILLER_0_22_283
*1362 FILLER_0_22_295
*1363 FILLER_0_22_3
*1364 FILLER_0_22_307
*1365 FILLER_0_22_329
*1366 FILLER_0_22_41
*1367 FILLER_0_22_53
*1368 FILLER_0_22_61
*1369 FILLER_0_22_70
*1370 FILLER_0_22_82
*1371 FILLER_0_22_85
*1372 FILLER_0_22_94
*1373 FILLER_0_23_101
*1374 FILLER_0_23_109
*1375 FILLER_0_23_113
*1376 FILLER_0_23_117
*1377 FILLER_0_23_129
*1378 FILLER_0_23_137
*1379 FILLER_0_23_167
*1380 FILLER_0_23_169
*1381 FILLER_0_23_181
*1382 FILLER_0_23_207
*1383 FILLER_0_23_219
*1384 FILLER_0_23_225
*1385 FILLER_0_23_237
*1386 FILLER_0_23_249
*1387 FILLER_0_23_253
*1388 FILLER_0_23_259
*1389 FILLER_0_23_275
*1390 FILLER_0_23_279
*1391 FILLER_0_23_281
*1392 FILLER_0_23_3
*1393 FILLER_0_23_303
*1394 FILLER_0_23_311
*1395 FILLER_0_23_318
*1396 FILLER_0_23_330
*1397 FILLER_0_23_334
*1398 FILLER_0_23_43
*1399 FILLER_0_23_55
*1400 FILLER_0_23_57
*1401 FILLER_0_23_62
*1402 FILLER_0_24_103
*1403 FILLER_0_24_131
*1404 FILLER_0_24_139
*1405 FILLER_0_24_141
*1406 FILLER_0_24_159
*1407 FILLER_0_24_18
*1408 FILLER_0_24_194
*1409 FILLER_0_24_205
*1410 FILLER_0_24_219
*1411 FILLER_0_24_231
*1412 FILLER_0_24_249
*1413 FILLER_0_24_253
*1414 FILLER_0_24_263
*1415 FILLER_0_24_287
*1416 FILLER_0_24_3
*1417 FILLER_0_24_306
*1418 FILLER_0_24_309
*1419 FILLER_0_24_317
*1420 FILLER_0_24_323
*1421 FILLER_0_24_50
*1422 FILLER_0_24_74
*1423 FILLER_0_24_82
*1424 FILLER_0_24_91
*1425 FILLER_0_25_111
*1426 FILLER_0_25_113
*1427 FILLER_0_25_130
*1428 FILLER_0_25_167
*1429 FILLER_0_25_195
*1430 FILLER_0_25_228
*1431 FILLER_0_25_232
*1432 FILLER_0_25_253
*1433 FILLER_0_25_272
*1434 FILLER_0_25_276
*1435 FILLER_0_25_3
*1436 FILLER_0_25_308
*1437 FILLER_0_25_330
*1438 FILLER_0_25_334
*1439 FILLER_0_25_48
*1440 FILLER_0_25_52
*1441 FILLER_0_25_74
*1442 FILLER_0_26_122
*1443 FILLER_0_26_149
*1444 FILLER_0_26_15
*1445 FILLER_0_26_167
*1446 FILLER_0_26_179
*1447 FILLER_0_26_190
*1448 FILLER_0_26_197
*1449 FILLER_0_26_206
*1450 FILLER_0_26_214
*1451 FILLER_0_26_22
*1452 FILLER_0_26_236
*1453 FILLER_0_26_257
*1454 FILLER_0_26_268
*1455 FILLER_0_26_280
*1456 FILLER_0_26_3
*1457 FILLER_0_26_307
*1458 FILLER_0_26_309
*1459 FILLER_0_26_331
*1460 FILLER_0_26_38
*1461 FILLER_0_26_64
*1462 FILLER_0_26_88
*1463 FILLER_0_27_11
*1464 FILLER_0_27_110
*1465 FILLER_0_27_119
*1466 FILLER_0_27_154
*1467 FILLER_0_27_167
*1468 FILLER_0_27_169
*1469 FILLER_0_27_17
*1470 FILLER_0_27_175
*1471 FILLER_0_27_233
*1472 FILLER_0_27_245
*1473 FILLER_0_27_292
*1474 FILLER_0_27_297
*1475 FILLER_0_27_3
*1476 FILLER_0_27_309
*1477 FILLER_0_27_315
*1478 FILLER_0_27_322
*1479 FILLER_0_27_334
*1480 FILLER_0_27_36
*1481 FILLER_0_27_48
*1482 FILLER_0_27_57
*1483 FILLER_0_27_61
*1484 FILLER_0_27_93
*1485 FILLER_0_28_128
*1486 FILLER_0_28_132
*1487 FILLER_0_28_183
*1488 FILLER_0_28_195
*1489 FILLER_0_28_197
*1490 FILLER_0_28_209
*1491 FILLER_0_28_217
*1492 FILLER_0_28_229
*1493 FILLER_0_28_233
*1494 FILLER_0_28_245
*1495 FILLER_0_28_251
*1496 FILLER_0_28_253
*1497 FILLER_0_28_265