*SPEF "ieee 1481-1999"
*DESIGN "tt_um_loco_choco"
*DATE "01:29:14 Friday April 19, 2024"
*VENDOR "The OpenROAD Project"
*PROGRAM "OpenROAD"
*VERSION "0889970d1790a2617e69f253221b8bd7626e51dc"
*DESIGN_FLOW "NAME_SCOPE LOCAL" "PIN_CAP NONE"
*DIVIDER /
*DELIMITER :
*BUS_DELIMITER []
*T_UNIT 1 NS
*C_UNIT 1 PF
*R_UNIT 1 OHM
*L_UNIT 1 HENRY

*NAME_MAP
*3 clk
*4 ena
*5 rst_n
*6 ui_in[0]
*7 ui_in[1]
*8 ui_in[2]
*9 ui_in[3]
*10 ui_in[4]
*11 ui_in[5]
*12 ui_in[6]
*13 ui_in[7]
*14 uio_in[0]
*15 uio_in[1]
*16 uio_in[2]
*17 uio_in[3]
*18 uio_in[4]
*19 uio_in[5]
*20 uio_in[6]
*21 uio_in[7]
*22 uio_oe[0]
*23 uio_oe[1]
*24 uio_oe[2]
*25 uio_oe[3]
*26 uio_oe[4]
*27 uio_oe[5]
*28 uio_oe[6]
*29 uio_oe[7]
*30 uio_out[0]
*31 uio_out[1]
*32 uio_out[2]
*33 uio_out[3]
*34 uio_out[4]
*35 uio_out[5]
*36 uio_out[6]
*37 uio_out[7]
*38 uo_out[0]
*39 uo_out[1]
*40 net12
*41 net13
*42 net14
*43 net15
*44 net16
*45 net17
*46 _000_
*47 _001_
*48 _002_
*49 _003_
*50 _004_
*51 _005_
*52 _006_
*53 _007_
*54 _008_
*55 _009_
*56 _010_
*57 _011_
*58 _012_
*59 _013_
*60 _014_
*61 _015_
*62 _016_
*63 _017_
*64 _018_
*65 _019_
*66 _020_
*67 _021_
*68 _022_
*69 _023_
*70 _024_
*71 _025_
*72 _026_
*73 _027_
*74 _028_
*75 _029_
*76 _030_
*77 _031_
*78 _032_
*79 _033_
*80 _034_
*81 _035_
*82 _036_
*83 _037_
*84 _038_
*85 _039_
*86 _040_
*87 _041_
*88 _042_
*89 _043_
*90 _044_
*91 _045_
*92 _046_
*93 _047_
*94 _048_
*95 _049_
*96 _050_
*97 _051_
*98 _052_
*99 _053_
*100 _054_
*101 _055_
*102 _056_
*103 _057_
*104 _058_
*105 _059_
*106 _060_
*107 _061_
*108 _062_
*109 _063_
*110 _064_
*111 _065_
*112 _066_
*113 _067_
*114 _068_
*115 _069_
*116 _070_
*117 _071_
*118 _072_
*119 _073_
*120 _074_
*121 _075_
*122 _076_
*123 _077_
*124 _078_
*125 _079_
*126 _080_
*127 _081_
*128 _082_
*129 _083_
*130 _084_
*131 _085_
*132 _086_
*133 _087_
*134 _088_
*135 _089_
*136 _090_
*137 _091_
*138 _092_
*139 _093_
*140 _094_
*141 _095_
*142 _096_
*143 _097_
*144 _098_
*145 _099_
*146 _100_
*147 _101_
*148 _102_
*149 _103_
*150 _104_
*151 _105_
*152 _106_
*153 _107_
*154 _108_
*155 _109_
*156 _110_
*157 _111_
*158 _112_
*159 _113_
*160 _114_
*161 _115_
*162 _116_
*163 _117_
*164 _118_
*165 _119_
*166 _120_
*167 _121_
*168 _122_
*169 _123_
*170 _124_
*171 _125_
*172 _126_
*173 _127_
*174 _128_
*175 _129_
*176 _130_
*177 _131_
*178 _132_
*179 _133_
*180 _134_
*181 _135_
*182 _136_
*183 _137_
*184 _138_
*185 _139_
*186 _140_
*187 _141_
*188 _142_
*189 _143_
*190 _144_
*191 _145_
*192 _146_
*193 _147_
*194 _148_
*195 _149_
*196 _150_
*197 _151_
*198 _152_
*199 _153_
*200 _154_
*201 _155_
*202 _156_
*203 _157_
*204 _158_
*205 _159_
*206 _160_
*207 _161_
*208 _162_
*209 _163_
*210 _164_
*211 _165_
*212 _166_
*213 _167_
*214 _168_
*215 _169_
*216 _170_
*217 _171_
*218 _172_
*219 _173_
*220 _174_
*221 _175_
*222 _176_
*223 _177_
*224 _178_
*225 _179_
*226 _180_
*227 _181_
*228 _182_
*229 _183_
*230 _184_
*231 _185_
*232 _186_
*233 _187_
*234 _188_
*235 _189_
*236 _190_
*237 _191_
*238 _192_
*239 _193_
*240 _194_
*241 _195_
*242 _196_
*243 _197_
*244 _198_
*245 _199_
*246 _200_
*247 _201_
*248 _202_
*249 _203_
*250 _204_
*251 _205_
*252 _206_
*253 _207_
*254 _208_
*255 _209_
*256 _210_
*257 _211_
*258 _212_
*259 _213_
*260 _214_
*261 _215_
*262 _216_
*263 _217_
*264 _218_
*265 _219_
*266 _220_
*267 _221_
*268 _222_
*269 _223_
*270 _224_
*271 _225_
*272 _226_
*273 _227_
*274 _228_
*275 _229_
*276 _230_
*277 _231_
*278 _232_
*279 _233_
*280 _234_
*281 _235_
*282 _236_
*283 _237_
*284 _238_
*285 _239_
*286 _240_
*287 _241_
*288 _242_
*289 _243_
*290 _244_
*291 _245_
*292 _246_
*293 _247_
*294 _248_
*295 _249_
*296 _250_
*297 _251_
*298 _252_
*299 _253_
*300 _254_
*301 addr_sel_\.in_0\[0\]
*302 addr_sel_\.in_0\[1\]
*303 addr_sel_\.in_0\[2\]
*304 addr_sel_\.in_0\[3\]
*305 addr_sel_\.in_0\[4\]
*306 addr_sel_\.in_0\[5\]
*307 addr_sel_\.in_0\[6\]
*308 addr_sel_\.in_0\[7\]
*309 addr_sel_\.in_1\[0\]
*310 addr_sel_\.in_1\[1\]
*311 addr_sel_\.in_1\[2\]
*312 addr_sel_\.in_1\[3\]
*313 addr_sel_\.in_1\[4\]
*314 addr_sel_\.in_1\[5\]
*315 addr_sel_\.in_1\[6\]
*316 addr_sel_\.in_1\[7\]
*317 alu_sel_mux\.in_2\[0\]
*318 alu_sel_mux\.in_2\[1\]
*319 alu_sel_mux\.in_2\[2\]
*320 alu_sel_mux\.in_2\[3\]
*321 alu_sel_mux\.in_2\[4\]
*322 alu_sel_mux\.in_2\[5\]
*323 alu_sel_mux\.in_2\[6\]
*324 alu_sel_mux\.in_2\[7\]
*325 alu_sel_mux\.in_3\[0\]
*326 alu_sel_mux\.in_3\[1\]
*327 alu_sel_mux\.in_3\[2\]
*328 alu_sel_mux\.in_3\[3\]
*329 alu_sel_mux\.in_3\[4\]
*330 alu_sel_mux\.in_3\[5\]
*331 alu_sel_mux\.in_3\[6\]
*332 alu_sel_mux\.in_3\[7\]
*333 clknet_0_clk
*334 clknet_2_0__leaf_clk
*335 clknet_2_1__leaf_clk
*336 clknet_2_2__leaf_clk
*337 clknet_2_3__leaf_clk
*338 data_sel_mux\.sel
*339 fsm_\.addr
*340 fsm_\.current_state\[0\]
*341 fsm_\.current_state\[10\]
*342 fsm_\.current_state\[12\]
*343 fsm_\.current_state\[1\]
*344 fsm_\.current_state\[2\]
*345 fsm_\.current_state\[3\]
*346 fsm_\.current_state\[4\]
*347 fsm_\.current_state\[6\]
*348 fsm_\.current_state\[8\]
*349 fsm_\.current_state\[9\]
*350 fsm_\.instr\[0\]
*351 fsm_\.instr\[1\]
*352 fsm_\.instr\[2\]
*353 fsm_\.instr\[3\]
*354 fsm_\.instr\[4\]
*355 fsm_\.instr\[5\]
*356 fsm_\.instr\[6\]
*357 fsm_\.instr\[7\]
*358 fsm_\.instr_en
*359 fsm_\.pc_en
*360 fsm_\.reg_en
*361 fsm_\.write
*362 net1
*363 net10
*364 net11
*365 net18
*366 net19
*367 net2
*368 net20
*369 net21
*370 net22
*371 net23
*372 net24
*373 net25
*374 net26
*375 net27
*376 net28
*377 net29
*378 net3
*379 net30
*380 net31
*381 net32
*382 net33
*383 net34
*384 net35
*385 net36
*386 net37
*387 net38
*388 net39
*389 net4
*390 net40
*391 net41
*392 net42
*393 net43
*394 net44
*395 net45
*396 net46
*397 net47
*398 net48
*399 net49
*400 net5
*401 net50
*402 net51
*403 net52
*404 net53
*405 net54
*406 net55
*407 net6
*408 net7
*409 net8
*410 net9
*411 FILLER_0_0_109
*412 FILLER_0_0_113
*413 FILLER_0_0_125
*414 FILLER_0_0_137
*415 FILLER_0_0_141
*416 FILLER_0_0_15
*417 FILLER_0_0_153
*418 FILLER_0_0_165
*419 FILLER_0_0_169
*420 FILLER_0_0_181
*421 FILLER_0_0_193
*422 FILLER_0_0_197
*423 FILLER_0_0_209
*424 FILLER_0_0_221
*425 FILLER_0_0_225
*426 FILLER_0_0_237
*427 FILLER_0_0_249
*428 FILLER_0_0_253
*429 FILLER_0_0_265
*430 FILLER_0_0_27
*431 FILLER_0_0_277
*432 FILLER_0_0_281
*433 FILLER_0_0_29
*434 FILLER_0_0_293
*435 FILLER_0_0_3
*436 FILLER_0_0_305
*437 FILLER_0_0_309
*438 FILLER_0_0_321
*439 FILLER_0_0_333
*440 FILLER_0_0_41
*441 FILLER_0_0_53
*442 FILLER_0_0_57
*443 FILLER_0_0_69
*444 FILLER_0_0_81
*445 FILLER_0_0_85
*446 FILLER_0_0_97
*447 FILLER_0_10_109
*448 FILLER_0_10_121
*449 FILLER_0_10_133
*450 FILLER_0_10_139
*451 FILLER_0_10_141
*452 FILLER_0_10_15
*453 FILLER_0_10_153
*454 FILLER_0_10_165
*455 FILLER_0_10_177
*456 FILLER_0_10_189
*457 FILLER_0_10_195
*458 FILLER_0_10_197
*459 FILLER_0_10_209
*460 FILLER_0_10_221
*461 FILLER_0_10_233
*462 FILLER_0_10_245
*463 FILLER_0_10_251
*464 FILLER_0_10_253
*465 FILLER_0_10_265
*466 FILLER_0_10_27
*467 FILLER_0_10_277
*468 FILLER_0_10_289
*469 FILLER_0_10_29
*470 FILLER_0_10_3
*471 FILLER_0_10_301
*472 FILLER_0_10_307
*473 FILLER_0_10_309
*474 FILLER_0_10_321
*475 FILLER_0_10_333
*476 FILLER_0_10_41
*477 FILLER_0_10_53
*478 FILLER_0_10_65
*479 FILLER_0_10_77
*480 FILLER_0_10_83
*481 FILLER_0_10_85
*482 FILLER_0_10_97
*483 FILLER_0_11_105
*484 FILLER_0_11_111
*485 FILLER_0_11_113
*486 FILLER_0_11_125
*487 FILLER_0_11_137
*488 FILLER_0_11_149
*489 FILLER_0_11_15
*490 FILLER_0_11_161
*491 FILLER_0_11_167
*492 FILLER_0_11_169
*493 FILLER_0_11_181
*494 FILLER_0_11_193
*495 FILLER_0_11_205
*496 FILLER_0_11_217
*497 FILLER_0_11_223
*498 FILLER_0_11_225
*499 FILLER_0_11_237
*500 FILLER_0_11_249
*501 FILLER_0_11_261
*502 FILLER_0_11_27
*503 FILLER_0_11_273
*504 FILLER_0_11_279
*505 FILLER_0_11_281
*506 FILLER_0_11_293
*507 FILLER_0_11_3
*508 FILLER_0_11_305
*509 FILLER_0_11_317
*510 FILLER_0_11_329
*511 FILLER_0_11_39
*512 FILLER_0_11_51
*513 FILLER_0_11_55
*514 FILLER_0_11_57
*515 FILLER_0_11_69
*516 FILLER_0_11_81
*517 FILLER_0_11_93
*518 FILLER_0_12_109
*519 FILLER_0_12_121
*520 FILLER_0_12_133
*521 FILLER_0_12_139
*522 FILLER_0_12_141
*523 FILLER_0_12_15
*524 FILLER_0_12_153
*525 FILLER_0_12_165
*526 FILLER_0_12_177
*527 FILLER_0_12_189
*528 FILLER_0_12_195
*529 FILLER_0_12_197
*530 FILLER_0_12_209
*531 FILLER_0_12_221
*532 FILLER_0_12_233
*533 FILLER_0_12_245
*534 FILLER_0_12_251
*535 FILLER_0_12_253
*536 FILLER_0_12_265
*537 FILLER_0_12_27
*538 FILLER_0_12_277
*539 FILLER_0_12_289
*540 FILLER_0_12_29
*541 FILLER_0_12_3
*542 FILLER_0_12_301
*543 FILLER_0_12_307
*544 FILLER_0_12_309
*545 FILLER_0_12_321
*546 FILLER_0_12_333
*547 FILLER_0_12_41
*548 FILLER_0_12_53
*549 FILLER_0_12_65
*550 FILLER_0_12_77
*551 FILLER_0_12_83
*552 FILLER_0_12_85
*553 FILLER_0_12_97
*554 FILLER_0_13_105
*555 FILLER_0_13_111
*556 FILLER_0_13_113
*557 FILLER_0_13_125
*558 FILLER_0_13_137
*559 FILLER_0_13_149
*560 FILLER_0_13_15
*561 FILLER_0_13_161
*562 FILLER_0_13_167
*563 FILLER_0_13_169
*564 FILLER_0_13_181
*565 FILLER_0_13_193
*566 FILLER_0_13_205
*567 FILLER_0_13_217
*568 FILLER_0_13_223
*569 FILLER_0_13_225
*570 FILLER_0_13_237
*571 FILLER_0_13_249
*572 FILLER_0_13_261
*573 FILLER_0_13_27
*574 FILLER_0_13_273
*575 FILLER_0_13_279
*576 FILLER_0_13_281
*577 FILLER_0_13_293
*578 FILLER_0_13_3
*579 FILLER_0_13_305
*580 FILLER_0_13_317
*581 FILLER_0_13_329
*582 FILLER_0_13_39
*583 FILLER_0_13_51
*584 FILLER_0_13_55
*585 FILLER_0_13_57
*586 FILLER_0_13_69
*587 FILLER_0_13_81
*588 FILLER_0_13_93
*589 FILLER_0_14_109
*590 FILLER_0_14_121
*591 FILLER_0_14_133
*592 FILLER_0_14_139
*593 FILLER_0_14_141
*594 FILLER_0_14_15
*595 FILLER_0_14_153
*596 FILLER_0_14_165
*597 FILLER_0_14_177
*598 FILLER_0_14_189
*599 FILLER_0_14_195
*600 FILLER_0_14_197
*601 FILLER_0_14_209
*602 FILLER_0_14_221
*603 FILLER_0_14_233
*604 FILLER_0_14_245
*605 FILLER_0_14_251
*606 FILLER_0_14_253
*607 FILLER_0_14_265
*608 FILLER_0_14_27
*609 FILLER_0_14_277
*610 FILLER_0_14_289
*611 FILLER_0_14_29
*612 FILLER_0_14_3
*613 FILLER_0_14_301
*614 FILLER_0_14_307
*615 FILLER_0_14_309
*616 FILLER_0_14_321
*617 FILLER_0_14_333
*618 FILLER_0_14_41
*619 FILLER_0_14_53
*620 FILLER_0_14_65
*621 FILLER_0_14_77
*622 FILLER_0_14_83
*623 FILLER_0_14_85
*624 FILLER_0_14_97
*625 FILLER_0_15_105
*626 FILLER_0_15_111
*627 FILLER_0_15_113
*628 FILLER_0_15_125
*629 FILLER_0_15_137
*630 FILLER_0_15_149
*631 FILLER_0_15_15
*632 FILLER_0_15_161
*633 FILLER_0_15_167
*634 FILLER_0_15_169
*635 FILLER_0_15_181
*636 FILLER_0_15_193
*637 FILLER_0_15_205
*638 FILLER_0_15_217
*639 FILLER_0_15_223
*640 FILLER_0_15_225
*641 FILLER_0_15_237
*642 FILLER_0_15_249
*643 FILLER_0_15_261
*644 FILLER_0_15_27
*645 FILLER_0_15_273
*646 FILLER_0_15_279
*647 FILLER_0_15_281
*648 FILLER_0_15_293
*649 FILLER_0_15_3
*650 FILLER_0_15_305
*651 FILLER_0_15_317
*652 FILLER_0_15_329
*653 FILLER_0_15_39
*654 FILLER_0_15_51
*655 FILLER_0_15_55
*656 FILLER_0_15_57
*657 FILLER_0_15_69
*658 FILLER_0_15_81
*659 FILLER_0_15_93
*660 FILLER_0_16_109
*661 FILLER_0_16_121
*662 FILLER_0_16_133
*663 FILLER_0_16_139
*664 FILLER_0_16_141
*665 FILLER_0_16_15
*666 FILLER_0_16_153
*667 FILLER_0_16_165
*668 FILLER_0_16_177
*669 FILLER_0_16_189
*670 FILLER_0_16_195
*671 FILLER_0_16_197
*672 FILLER_0_16_209
*673 FILLER_0_16_221
*674 FILLER_0_16_233
*675 FILLER_0_16_245
*676 FILLER_0_16_251
*677 FILLER_0_16_253
*678 FILLER_0_16_265
*679 FILLER_0_16_27
*680 FILLER_0_16_277
*681 FILLER_0_16_289
*682 FILLER_0_16_29
*683 FILLER_0_16_3
*684 FILLER_0_16_301
*685 FILLER_0_16_307
*686 FILLER_0_16_309
*687 FILLER_0_16_321
*688 FILLER_0_16_333
*689 FILLER_0_16_41
*690 FILLER_0_16_53
*691 FILLER_0_16_65
*692 FILLER_0_16_77
*693 FILLER_0_16_83
*694 FILLER_0_16_85
*695 FILLER_0_16_97
*696 FILLER_0_17_105
*697 FILLER_0_17_111
*698 FILLER_0_17_113
*699 FILLER_0_17_125
*700 FILLER_0_17_137
*701 FILLER_0_17_149
*702 FILLER_0_17_15
*703 FILLER_0_17_161
*704 FILLER_0_17_167
*705 FILLER_0_17_169
*706 FILLER_0_17_181
*707 FILLER_0_17_193
*708 FILLER_0_17_205
*709 FILLER_0_17_217
*710 FILLER_0_17_223
*711 FILLER_0_17_225
*712 FILLER_0_17_237
*713 FILLER_0_17_249
*714 FILLER_0_17_261
*715 FILLER_0_17_27
*716 FILLER_0_17_273
*717 FILLER_0_17_279
*718 FILLER_0_17_281
*719 FILLER_0_17_293
*720 FILLER_0_17_3
*721 FILLER_0_17_305
*722 FILLER_0_17_317
*723 FILLER_0_17_329
*724 FILLER_0_17_39
*725 FILLER_0_17_51
*726 FILLER_0_17_55
*727 FILLER_0_17_57
*728 FILLER_0_17_69
*729 FILLER_0_17_81
*730 FILLER_0_17_93
*731 FILLER_0_18_109
*732 FILLER_0_18_121
*733 FILLER_0_18_133
*734 FILLER_0_18_139
*735 FILLER_0_18_141
*736 FILLER_0_18_15
*737 FILLER_0_18_153
*738 FILLER_0_18_165
*739 FILLER_0_18_177
*740 FILLER_0_18_189
*741 FILLER_0_18_195
*742 FILLER_0_18_197
*743 FILLER_0_18_209
*744 FILLER_0_18_221
*745 FILLER_0_18_233
*746 FILLER_0_18_245
*747 FILLER_0_18_251
*748 FILLER_0_18_253
*749 FILLER_0_18_265
*750 FILLER_0_18_27
*751 FILLER_0_18_277
*752 FILLER_0_18_289
*753 FILLER_0_18_29
*754 FILLER_0_18_3
*755 FILLER_0_18_301
*756 FILLER_0_18_307
*757 FILLER_0_18_309
*758 FILLER_0_18_321
*759 FILLER_0_18_333
*760 FILLER_0_18_41
*761 FILLER_0_18_53
*762 FILLER_0_18_65
*763 FILLER_0_18_77
*764 FILLER_0_18_83
*765 FILLER_0_18_85
*766 FILLER_0_18_97
*767 FILLER_0_19_105
*768 FILLER_0_19_111
*769 FILLER_0_19_113
*770 FILLER_0_19_125
*771 FILLER_0_19_137
*772 FILLER_0_19_149
*773 FILLER_0_19_15
*774 FILLER_0_19_161
*775 FILLER_0_19_167
*776 FILLER_0_19_169
*777 FILLER_0_19_181
*778 FILLER_0_19_193
*779 FILLER_0_19_205
*780 FILLER_0_19_217
*781 FILLER_0_19_223
*782 FILLER_0_19_225
*783 FILLER_0_19_237
*784 FILLER_0_19_249
*785 FILLER_0_19_261
*786 FILLER_0_19_27
*787 FILLER_0_19_273
*788 FILLER_0_19_279
*789 FILLER_0_19_281
*790 FILLER_0_19_293
*791 FILLER_0_19_3
*792 FILLER_0_19_305
*793 FILLER_0_19_317
*794 FILLER_0_19_329
*795 FILLER_0_19_39
*796 FILLER_0_19_51
*797 FILLER_0_19_55
*798 FILLER_0_19_57
*799 FILLER_0_19_69
*800 FILLER_0_19_81
*801 FILLER_0_19_93
*802 FILLER_0_1_105
*803 FILLER_0_1_111
*804 FILLER_0_1_113
*805 FILLER_0_1_125
*806 FILLER_0_1_137
*807 FILLER_0_1_149
*808 FILLER_0_1_15
*809 FILLER_0_1_161
*810 FILLER_0_1_167
*811 FILLER_0_1_169
*812 FILLER_0_1_181
*813 FILLER_0_1_193
*814 FILLER_0_1_205
*815 FILLER_0_1_217
*816 FILLER_0_1_223
*817 FILLER_0_1_225
*818 FILLER_0_1_237
*819 FILLER_0_1_249
*820 FILLER_0_1_261
*821 FILLER_0_1_27
*822 FILLER_0_1_273
*823 FILLER_0_1_279
*824 FILLER_0_1_281
*825 FILLER_0_1_293
*826 FILLER_0_1_3
*827 FILLER_0_1_305
*828 FILLER_0_1_317
*829 FILLER_0_1_329
*830 FILLER_0_1_39
*831 FILLER_0_1_51
*832 FILLER_0_1_55
*833 FILLER_0_1_57
*834 FILLER_0_1_69
*835 FILLER_0_1_81
*836 FILLER_0_1_93
*837 FILLER_0_20_109
*838 FILLER_0_20_121
*839 FILLER_0_20_133
*840 FILLER_0_20_139
*841 FILLER_0_20_141
*842 FILLER_0_20_15
*843 FILLER_0_20_153
*844 FILLER_0_20_165
*845 FILLER_0_20_177
*846 FILLER_0_20_189
*847 FILLER_0_20_195
*848 FILLER_0_20_197
*849 FILLER_0_20_209
*850 FILLER_0_20_221
*851 FILLER_0_20_233
*852 FILLER_0_20_245
*853 FILLER_0_20_251
*854 FILLER_0_20_253
*855 FILLER_0_20_265
*856 FILLER_0_20_27
*857 FILLER_0_20_277
*858 FILLER_0_20_289
*859 FILLER_0_20_29
*860 FILLER_0_20_3
*861 FILLER_0_20_301
*862 FILLER_0_20_307
*863 FILLER_0_20_309
*864 FILLER_0_20_321
*865 FILLER_0_20_333
*866 FILLER_0_20_41
*867 FILLER_0_20_53
*868 FILLER_0_20_65
*869 FILLER_0_20_77
*870 FILLER_0_20_83
*871 FILLER_0_20_85
*872 FILLER_0_20_97
*873 FILLER_0_21_105
*874 FILLER_0_21_111
*875 FILLER_0_21_113
*876 FILLER_0_21_125
*877 FILLER_0_21_129
*878 FILLER_0_21_133
*879 FILLER_0_21_145
*880 FILLER_0_21_15
*881 FILLER_0_21_157
*882 FILLER_0_21_165
*883 FILLER_0_21_169
*884 FILLER_0_21_181
*885 FILLER_0_21_193
*886 FILLER_0_21_205
*887 FILLER_0_21_217
*888 FILLER_0_21_223
*889 FILLER_0_21_225
*890 FILLER_0_21_237
*891 FILLER_0_21_249
*892 FILLER_0_21_261
*893 FILLER_0_21_27
*894 FILLER_0_21_273
*895 FILLER_0_21_279
*896 FILLER_0_21_281
*897 FILLER_0_21_293
*898 FILLER_0_21_3
*899 FILLER_0_21_305
*900 FILLER_0_21_317
*901 FILLER_0_21_329
*902 FILLER_0_21_39
*903 FILLER_0_21_51
*904 FILLER_0_21_55
*905 FILLER_0_21_57
*906 FILLER_0_21_69
*907 FILLER_0_21_81
*908 FILLER_0_21_93
*909 FILLER_0_22_111
*910 FILLER_0_22_123
*911 FILLER_0_22_15
*912 FILLER_0_22_157
*913 FILLER_0_22_164
*914 FILLER_0_22_176
*915 FILLER_0_22_188
*916 FILLER_0_22_197
*917 FILLER_0_22_209
*918 FILLER_0_22_221
*919 FILLER_0_22_233
*920 FILLER_0_22_245
*921 FILLER_0_22_251
*922 FILLER_0_22_253
*923 FILLER_0_22_265
*924 FILLER_0_22_27
*925 FILLER_0_22_277
*926 FILLER_0_22_289
*927 FILLER_0_22_29
*928 FILLER_0_22_3
*929 FILLER_0_22_301
*930 FILLER_0_22_307
*931 FILLER_0_22_309
*932 FILLER_0_22_321
*933 FILLER_0_22_333
*934 FILLER_0_22_41
*935 FILLER_0_22_75
*936 FILLER_0_22_83
*937 FILLER_0_22_85
*938 FILLER_0_22_99
*939 FILLER_0_23_109
*940 FILLER_0_23_113
*941 FILLER_0_23_15
*942 FILLER_0_23_159
*943 FILLER_0_23_205
*944 FILLER_0_23_217
*945 FILLER_0_23_223
*946 FILLER_0_23_225
*947 FILLER_0_23_237
*948 FILLER_0_23_249
*949 FILLER_0_23_261
*950 FILLER_0_23_27
*951 FILLER_0_23_273
*952 FILLER_0_23_279
*953 FILLER_0_23_281
*954 FILLER_0_23_293
*955 FILLER_0_23_3
*956 FILLER_0_23_305
*957 FILLER_0_23_317
*958 FILLER_0_23_329
*959 FILLER_0_23_33
*960 FILLER_0_23_88
*961 FILLER_0_24_120
*962 FILLER_0_24_141
*963 FILLER_0_24_147
*964 FILLER_0_24_15
*965 FILLER_0_24_213
*966 FILLER_0_24_225
*967 FILLER_0_24_237
*968 FILLER_0_24_249
*969 FILLER_0_24_253
*970 FILLER_0_24_265
*971 FILLER_0_24_27
*972 FILLER_0_24_277
*973 FILLER_0_24_289
*974 FILLER_0_24_3
*975 FILLER_0_24_301
*976 FILLER_0_24_307
*977 FILLER_0_24_309
*978 FILLER_0_24_321
*979 FILLER_0_24_333
*980 FILLER_0_24_42
*981 FILLER_0_25_110
*982 FILLER_0_25_113
*983 FILLER_0_25_121
*984 FILLER_0_25_15
*985 FILLER_0_25_155
*986 FILLER_0_25_167
*987 FILLER_0_25_174
*988 FILLER_0_25_205
*989 FILLER_0_25_217
*990 FILLER_0_25_223
*991 FILLER_0_25_225
*992 FILLER_0_25_231
*993 FILLER_0_25_248
*994 FILLER_0_25_260
*995 FILLER_0_25_272
*996 FILLER_0_25_281
*997 FILLER_0_25_293
*998 FILLER_0_25_3
*999 FILLER_0_25_305
*1000 FILLER_0_25_317
*1001 FILLER_0_25_329
*1002 FILLER_0_25_49
*1003 FILLER_0_25_74
*1004 FILLER_0_25_82
*1005 FILLER_0_26_119
*1006 FILLER_0_26_125
*1007 FILLER_0_26_129
*1008 FILLER_0_26_138
*1009 FILLER_0_26_145
*1010 FILLER_0_26_149
*1011 FILLER_0_26_15
*1012 FILLER_0_26_175
*1013 FILLER_0_26_206
*1014 FILLER_0_26_210
*1015 FILLER_0_26_244
*1016 FILLER_0_26_253
*1017 FILLER_0_26_261
*1018 FILLER_0_26_27
*1019 FILLER_0_26_278
*1020 FILLER_0_26_288
*1021 FILLER_0_26_29
*1022 FILLER_0_26_3
*1023 FILLER_0_26_300
*1024 FILLER_0_26_309
*1025 FILLER_0_26_321
*1026 FILLER_0_26_333
*1027 FILLER_0_26_67
*1028 FILLER_0_26_79
*1029 FILLER_0_26_83
*1030 FILLER_0_27_139
*1031 FILLER_0_27_15
*1032 FILLER_0_27_157
*1033 FILLER_0_27_163
*1034 FILLER_0_27_167
*1035 FILLER_0_27_169
*1036 FILLER_0_27_200
*1037 FILLER_0_27_212
*1038 FILLER_0_27_242
*1039 FILLER_0_27_252
*1040 FILLER_0_27_274
*1041 FILLER_0_27_289
*1042 FILLER_0_27_3
*1043 FILLER_0_27_309
*1044 FILLER_0_27_321
*1045 FILLER_0_27_333
*1046 FILLER_0_27_65
*1047 FILLER_0_27_74
*1048 FILLER_0_27_86
*1049 FILLER_0_27_95
*1050 FILLER_0_28_131
*1051 FILLER_0_28_15
*1052 FILLER_0_28_169
*1053 FILLER_0_28_194
*1054 FILLER_0_28_197
*1055 FILLER_0_28_205
*1056 FILLER_0_28_246
*1057 FILLER_0_28_27
*1058 FILLER_0_28_3
*1059 FILLER_0_28_305
*1060 FILLER_0_28_309
*1061 FILLER_0_28_321
*1062 FILLER_0_28_333
*1063 FILLER_0_28_53
*1064 FILLER_0_28_78
*1065 FILLER_0_28_93
*1066 FILLER_0_29_110
*1067 FILLER_0_29_113
*1068 FILLER_0_29_131
*1069 FILLER_0_29_135
*1070 FILLER_0_29_144
*1071 FILLER_0_29_15
*1072 FILLER_0_29_156
*1073 FILLER_0_29_182
*1074 FILLER_0_29_194
*1075 FILLER_0_29_202
*1076 FILLER_0_29_221
*1077 FILLER_0_29_225
*1078 FILLER_0_29_233
*1079 FILLER_0_29_237
*1080 FILLER_0_29_258
*1081 FILLER_0_29_289
*1082 FILLER_0_29_3
*1083 FILLER_0_29_309
*1084 FILLER_0_29_321
*1085 FILLER_0_29_333
*1086 FILLER_0_29_37
*1087 FILLER_0_29_55
*1088 FILLER_0_29_60
*1089 FILLER_0_29_76
*1090 FILLER_0_2_109
*1091 FILLER_0_2_121
*1092 FILLER_0_2_133
*1093 FILLER_0_2_139
*1094 FILLER_0_2_141
*1095 FILLER_0_2_15
*1096 FILLER_0_2_153
*1097 FILLER_0_2_165
*1098 FILLER_0_2_177
*1099 FILLER_0_2_189
*1100 FILLER_0_2_195
*1101 FILLER_0_2_197
*1102 FILLER_0_2_209
*1103 FILLER_0_2_221
*1104 FILLER_0_2_233
*1105 FILLER_0_2_245
*1106 FILLER_0_2_251
*1107 FILLER_0_2_253
*1108 FILLER_0_2_265
*1109 FILLER_0_2_27
*1110 FILLER_0_2_277
*1111 FILLER_0_2_289
*1112 FILLER_0_2_29
*1113 FILLER_0_2_3
*1114 FILLER_0_2_301
*1115 FILLER_0_2_307
*1116 FILLER_0_2_309
*1117 FILLER_0_2_321
*1118 FILLER_0_2_333
*1119 FILLER_0_2_41
*1120 FILLER_0_2_53
*1121 FILLER_0_2_65
*1122 FILLER_0_2_77
*1123 FILLER_0_2_83
*1124 FILLER_0_2_85
*1125 FILLER_0_2_97
*1126 FILLER_0_30_104
*1127 FILLER_0_30_115
*1128 FILLER_0_30_141
*1129 FILLER_0_30_147
*1130 FILLER_0_30_15
*1131 FILLER_0_30_152
*1132 FILLER_0_30_156
*1133 FILLER_0_30_197
*1134 FILLER_0_30_203
*1135 FILLER_0_30_213
*1136 FILLER_0_30_225
*1137 FILLER_0_30_23
*1138 FILLER_0_30_3
*1139 FILLER_0_30_307
*1140 FILLER_0_30_322
*1141 FILLER_0_30_334
*1142 FILLER_0_30_69
*1143 FILLER_0_30_81
*1144 FILLER_0_30_88
*1145 FILLER_0_31_100
*1146 FILLER_0_31_113
*1147 FILLER_0_31_136
*1148 FILLER_0_31_145
*1149 FILLER_0_31_149
*1150 FILLER_0_31_15
*1151 FILLER_0_31_156
*1152 FILLER_0_31_184
*1153 FILLER_0_31_19
*1154 FILLER_0_31_196
*1155 FILLER_0_31_219
*1156 FILLER_0_31_223
*1157 FILLER_0_31_225
*1158 FILLER_0_31_260
*1159 FILLER_0_31_275
*1160 FILLER_0_31_279
*1161 FILLER_0_31_291
*1162 FILLER_0_31_3
*1163 FILLER_0_31_327
*1164 FILLER_0_31_55
*1165 FILLER_0_31_57
*1166 FILLER_0_31_82
*1167 FILLER_0_32_102
*1168 FILLER_0_32_122
*1169 FILLER_0_32_149
*1170 FILLER_0_32_15
*1171 FILLER_0_32_155
*1172 FILLER_0_32_183
*1173 FILLER_0_32_194
*1174 FILLER_0_32_227
*1175 FILLER_0_32_257
*1176 FILLER_0_32_27
*1177 FILLER_0_32_284
*1178 FILLER_0_32_297
*1179 FILLER_0_32_3
*1180 FILLER_0_32_302
*1181 FILLER_0_32_309
*1182 FILLER_0_32_321
*1183 FILLER_0_32_333
*1184 FILLER_0_32_61
*1185 FILLER_0_32_72
*1186 FILLER_0_32_85
*1187 FILLER_0_32_91
*1188 FILLER_0_33_101
*1189 FILLER_0_33_109
*1190 FILLER_0_33_113
*1191 FILLER_0_33_123
*1192 FILLER_0_33_15
*1193 FILLER_0_33_153
*1194 FILLER_0_33_165
*1195 FILLER_0_33_172
*1196 FILLER_0_33_184
*1197 FILLER_0_33_190
*1198 FILLER_0_33_218
*1199 FILLER_0_33_231
*1200 FILLER_0_33_243
*1201 FILLER_0_33_250
*1202 FILLER_0_33_27
*1203 FILLER_0_33_277
*1204 FILLER_0_33_281
*1205 FILLER_0_33_293
*1206 FILLER_0_33_3
*1207 FILLER_0_33_305
*1208 FILLER_0_33_317
*1209 FILLER_0_33_329
*1210 FILLER_0_33_43
*1211 FILLER_0_33_49
*1212 FILLER_0_33_53
*1213 FILLER_0_33_74
*1214 FILLER_0_33_82
*1215 FILLER_0_34_110
*1216 FILLER_0_34_132
*1217 FILLER_0_34_141
*1218 FILLER_0_34_15
*1219 FILLER_0_34_153
*1220 FILLER_0_34_159
*1221 FILLER_0_34_163
*1222 FILLER_0_34_179
*1223 FILLER_0_34_191
*1224 FILLER_0_34_197
*1225 FILLER_0_34_201
*1226 FILLER_0_34_207
*1227 FILLER_0_34_219
*1228 FILLER_0_34_231
*1229 FILLER_0_34_243
*1230 FILLER_0_34_251
*1231 FILLER_0_34_253
*1232 FILLER_0_34_27
*1233 FILLER_0_34_285
*1234 FILLER_0_34_29
*1235 FILLER_0_34_291
*1236 FILLER_0_34_297
*1237 FILLER_0_34_3
*1238 FILLER_0_34_304
*1239 FILLER_0_34_309
*1240 FILLER_0_34_321
*1241 FILLER_0_34_333
*1242 FILLER_0_34_79
*1243 FILLER_0_34_85
*1244 FILLER_0_35_122
*1245 FILLER_0_35_139
*1246 FILLER_0_35_15
*1247 FILLER_0_35_154
*1248 FILLER_0_35_164
*1249 FILLER_0_35_169
*1250 FILLER_0_35_184
*1251 FILLER_0_35_190
*1252 FILLER_0_35_202
*1253 FILLER_0_35_214
*1254 FILLER_0_35_221
*1255 FILLER_0_35_234
*1256 FILLER_0_35_245
*1257 FILLER_0_35_249
*1258 FILLER_0_35_27
*1259 FILLER_0_35_277
*1260 FILLER_0_35_3
*1261 FILLER_0_35_31
*1262 FILLER_0_35_330
*1263 FILLER_0_35_334
*1264 FILLER_0_35_51
*1265 FILLER_0_35_55
*1266 FILLER_0_35_57
*1267 FILLER_0_35_76
*1268 FILLER_0_35_97
*1269 FILLER_0_36_114
*1270 FILLER_0_36_120
*1271 FILLER_0_36_15
*1272 FILLER_0_36_157
*1273 FILLER_0_36_208
*1274 FILLER_0_36_232
*1275 FILLER_0_36_27
*1276 FILLER_0_36_278
*1277 FILLER_0_36_282
*1278 FILLER_0_36_29
*1279 FILLER_0_36_3
*1280 FILLER_0_36_314
*1281 FILLER_0_36_326
*1282 FILLER_0_36_334
*1283 FILLER_0_36_45
*1284 FILLER_0_36_49
*1285 FILLER_0_36_58
*1286 FILLER_0_36_73
*1287 FILLER_0_36_81
*1288 FILLER_0_37_119
*1289 FILLER_0_37_130
*1290 FILLER_0_37_136
*1291 FILLER_0_37_150
*1292 FILLER_0_37_162
*1293 FILLER_0_37_169
*1294 FILLER_0_37_184
*1295 FILLER_0_37_189
*1296 FILLER_0_37_197
*1297 FILLER_0_37_228
*1298 FILLER_0_37_23
*1299 FILLER_0_37_234
*1300 FILLER_0_37_240
*1301 FILLER_0_37_248
*1302 FILLER_0_37_278
*1303 FILLER_0_37_28
*1304 FILLER_0_37_281
*1305 FILLER_0_37_289
*1306 FILLER_0_37_3
*1307 FILLER_0_37_307
*1308 FILLER_0_37_319
*1309 FILLER_0_37_331
*1310 FILLER_0_37_36
*1311 FILLER_0_37_44
*1312 FILLER_0_37_83
*1313 FILLER_0_37_89
*1314 FILLER_0_38_105
*1315 FILLER_0_38_111
*1316 FILLER_0_38_113
*1317 FILLER_0_38_125
*1318 FILLER_0_38_134
*1319 FILLER_0_38_144
*1320 FILLER_0_38_15
*1321 FILLER_0_38_153
*1322 FILLER_0_38_158
*1323 FILLER_0_38_162
*1324 FILLER_0_38_166
*1325 FILLER_0_38_169
*1326 FILLER_0_38_174
*1327 FILLER_0_38_186
*1328 FILLER_0_38_194
*1329 FILLER_0_38_200
*1330 FILLER_0_38_206
*1331 FILLER_0_38_210
*1332 FILLER_0_38_214
*1333 FILLER_0_38_231
*1334 FILLER_0_38_238
*1335 FILLER_0_38_242
*1336 FILLER_0_38_246
*1337 FILLER_0_38_256
*1338 FILLER_0_38_262
*1339 FILLER_0_38_266
*1340 FILLER_0_38_27
*1341 FILLER_0_38_278
*1342 FILLER_0_38_281
*1343 FILLER_0_38_29
*1344 FILLER_0_38_293
*1345 FILLER_0_38_3
*1346 FILLER_0_38_305
*1347 FILLER_0_38_309
*1348 FILLER_0_38_41
*1349 FILLER_0_38_53
*1350 FILLER_0_38_57
*1351 FILLER_0_38_75
*1352 FILLER_0_38_83
*1353 FILLER_0_38_85
*1354 FILLER_0_38_97
*1355 FILLER_0_3_105
*1356 FILLER_0_3_111
*1357 FILLER_0_3_113
*1358 FILLER_0_3_125
*1359 FILLER_0_3_137
*1360 FILLER_0_3_149
*1361 FILLER_0_3_15
*1362 FILLER_0_3_161
*1363 FILLER_0_3_167
*1364 FILLER_0_3_169
*1365 FILLER_0_3_181
*1366 FILLER_0_3_193
*1367 FILLER_0_3_205
*1368 FILLER_0_3_217
*1369 FILLER_0_3_223
*1370 FILLER_0_3_225
*1371 FILLER_0_3_237
*1372 FILLER_0_3_249
*1373 FILLER_0_3_261
*1374 FILLER_0_3_27
*1375 FILLER_0_3_273
*1376 FILLER_0_3_279
*1377 FILLER_0_3_281
*1378 FILLER_0_3_293
*1379 FILLER_0_3_3
*1380 FILLER_0_3_305
*1381 FILLER_0_3_317
*1382 FILLER_0_3_329
*1383 FILLER_0_3_39
*1384 FILLER_0_3_51
*1385 FILLER_0_3_55
*1386 FILLER_0_3_57
*1387 FILLER_0_3_69
*1388 FILLER_0_3_81
*1389 FILLER_0_3_93
*1390 FILLER_0_4_109
*1391 FILLER_0_4_121
*1392 FILLER_0_4_133
*1393 FILLER_0_4_139
*1394 FILLER_0_4_141
*1395 FILLER_0_4_15
*1396 FILLER_0_4_153
*1397 FILLER_0_4_165
*1398 FILLER_0_4_177
*1399 FILLER_0_4_189
*1400 FILLER_0_4_195
*1401 FILLER_0_4_197
*1402 FILLER_0_4_209
*1403 FILLER_0_4_221
*1404 FILLER_0_4_233
*1405 FILLER_0_4_245
*1406 FILLER_0_4_251
*1407 FILLER_0_4_253
*1408 FILLER_0_4_265
*1409 FILLER_0_4_27
*1410 FILLER_0_4_277
*1411 FILLER_0_4_289
*1412 FILLER_0_4_29
*1413 FILLER_0_4_3
*1414 FILLER_0_4_301
*1415 FILLER_0_4_307
*1416 FILLER_0_4_309
*1417 FILLER_0_4_321
*1418 FILLER_0_4_333
*1419 FILLER_0_4_41
*1420 FILLER_0_4_53
*1421 FILLER_0_4_65
*1422 FILLER_0_4_77
*1423 FILLER_0_4_83
*1424 FILLER_0_4_85
*1425 FILLER_0_4_97
*1426 FILLER_0_5_105
*1427 FILLER_0_5_111
*1428 FILLER_0_5_113
*1429 FILLER_0_5_125
*1430 FILLER_0_5_137
*1431 FILLER_0_5_149
*1432 FILLER_0_5_15
*1433 FILLER_0_5_161
*1434 FILLER_0_5_167
*1435 FILLER_0_5_169
*1436 FILLER_0_5_181
*1437 FILLER_0_5_193
*1438 FILLER_0_5_205
*1439 FILLER_0_5_217
*1440 FILLER_0_5_223
*1441 FILLER_0_5_225
*1442 FILLER_0_5_237
*1443 FILLER_0_5_249
*1444 FILLER_0_5_261
*1445 FILLER_0_5_27
*1446 FILLER_0_5_273
*1447 FILLER_0_5_279
*1448 FILLER_0_5_281
*1449 FILLER_0_5_293
*1450 FILLER_0_5_3
*1451 FILLER_0_5_305
*1452 FILLER_0_5_317
*1453 FILLER_0_5_329
*1454 FILLER_0_5_39
*1455 FILLER_0_5_51
*1456 FILLER_0_5_55
*1457 FILLER_0_5_57
*1458 FILLER_0_5_69
*1459 FILLER_0_5_81
*1460 FILLER_0_5_93
*1461 FILLER_0_6_109
*1462 FILLER_0_6_121
*1463 FILLER_0_6_133
*1464 FILLER_0_6_139
*1465 FILLER_0_6_141
*1466 FILLER_0_6_15
*1467 FILLER_0_6_153
*1468 FILLER_0_6_165
*1469 FILLER_0_6_177
*1470 FILLER_0_6_189
*1471 FILLER_0_6_195
*1472 FILLER_0_6_197
*1473 FILLER_0_6_209
*1474 FILLER_0_6_221
*1475 FILLER_0_6_233
*1476 FILLER_0_6_245
*1477 FILLER_0_6_251
*1478 FILLER_0_6_253
*1479 FILLER_0_6_265
*1480 FILLER_0_6_27
*1481 FILLER_0_6_277
*1482 FILLER_0_6_289
*1483 FILLER_0_6_29
*1484 FILLER_0_6_3
*1485 FILLER_0_6_301
*1486 FILLER_0_6_307
*1487 FILLER_0_6_309
*1488 FILLER_0_6_321
*1489 FILLER_0_6_333
*1490 FILLER_0_6_41
*1491 FILLER_0_6_53
*1492 FILLER_0_6_65
*1493 FILLER_0_6_77
*1494 FILLER_0_6_83
*1495 FILLER_0_6_85
*1496 FILLER_0_6_97
*1497 FILLER_0_7_105
*1498 FILLER_0_7_111
*1499 FILLER_0_7_113
*1500 FILLER_0_7_125
*1501 FILLER_0_7_137
*1502 FILLER_0_7_149
*1503 FILLER_0_7_15
*1504 FILLER_0_7_161
*1505 FILLER_0_7_167
*1506 FILLER_0_7_169
*1507 FILLER_0_7_181
*1508 FILLER_0_7_193
*1509 FILLER_0_7_205
*1510 FILLER_0_7_217
*1511 FILLER_0_7_223
*1512 FILLER_0_7_225
*1513 FILLER_0_7_237
*1514 FILLER_0_7_249
*1515 FILLER_0_7_261
*1516 FILLER_0_7_27
*1517 FILLER_0_7_273
*1518 FILLER_0_7_279
*1519 FILLER_0_7_281
*1520 FILLER_0_7_293
*1521 FILLER_0_7_3
*1522 FILLER_0_7_305
*1523 FILLER_0_7_317
*1524 FILLER_0_7_329
*1525 FILLER_0_7_39
*1526 FILLER_0_7_51
*1527 FILLER_0_7_55
*1528 FILLER_0_7_57
*1529 FILLER_0_7_69
*1530 FILLER_0_7_81
*1531 FILLER_0_7_93
*1532 FILLER_0_8_109
*1533 FILLER_0_8_121
*1534 FILLER_0_8_133
*1535 FILLER_0_8_139
*1536 FILLER_0_8_141
*1537 FILLER_0_8_15
*1538 FILLER_0_8_153
*1539 FILLER_0_8_165
*1540 FILLER_0_8_177
*1541 FILLER_0_8_189
*1542 FILLER_0_8_195
*1543 FILLER_0_8_197
*1544 FILLER_0_8_209
*1545 FILLER_0_8_221
*1546 FILLER_0_8_233
*1547 FILLER_0_8_245
*1548 FILLER_0_8_251
*1549 FILLER_0_8_253
*1550 FILLER_0_8_265
*1551 FILLER_0_8_27
*1552 FILLER_0_8_277
*1553 FILLER_0_8_289
*1554 FILLER_0_8_29
*1555 FILLER_0_8_3
*1556 FILLER_0_8_301
*1557 FILLER_0_8_307
*1558 FILLER_0_8_309
*1559 FILLER_0_8_321
*1560 FILLER_0_8_333
*1561 FILLER_0_8_41
*1562 FILLER_0_8_53
*1563 FILLER_0_8_65
*1564 FILLER_0_8_77
*1565 FILLER_0_8_83
*1566 FILLER_0_8_85
*1567 FILLER_0_8_97
*1568 FILLER_0_9_105
*1569 FILLER_0_9_111
*1570 FILLER_0_9_113