*SPEF "ieee 1481-1999"
*DESIGN "tt_um_loco_choco"
*DATE "23:42:41 Wednesday April 17, 2024"
*VENDOR "The OpenROAD Project"
*PROGRAM "OpenROAD"
*VERSION "0889970d1790a2617e69f253221b8bd7626e51dc"
*DESIGN_FLOW "NAME_SCOPE LOCAL" "PIN_CAP NONE"
*DIVIDER /
*DELIMITER :
*BUS_DELIMITER []
*T_UNIT 1 NS
*C_UNIT 1 PF
*R_UNIT 1 OHM
*L_UNIT 1 HENRY

*NAME_MAP
*3 clk
*4 ena
*5 rst_n
*6 ui_in[0]
*7 ui_in[1]
*8 ui_in[2]
*9 ui_in[3]
*10 ui_in[4]
*11 ui_in[5]
*12 ui_in[6]
*13 ui_in[7]
*14 uio_in[0]
*15 uio_in[1]
*16 uio_in[2]
*17 uio_in[3]
*18 uio_in[4]
*19 uio_in[5]
*20 uio_in[6]
*21 uio_in[7]
*22 uio_oe[0]
*23 uio_oe[1]
*24 uio_oe[2]
*25 uio_oe[3]
*26 uio_oe[4]
*27 uio_oe[5]
*28 uio_oe[6]
*29 uio_oe[7]
*30 uio_out[0]
*31 uio_out[1]
*32 uio_out[2]
*33 uio_out[3]
*34 uio_out[4]
*35 uio_out[5]
*36 uio_out[6]
*37 uio_out[7]
*38 uo_out[0]
*39 uo_out[1]
*40 uo_out[2]
*41 uo_out[3]
*42 uo_out[4]
*43 uo_out[5]
*44 uo_out[6]
*45 uo_out[7]
*46 _000_
*47 _001_
*48 _002_
*49 _003_
*50 _004_
*51 _005_
*52 _006_
*53 _007_
*54 _008_
*55 _009_
*56 _010_
*57 _011_
*58 _012_
*59 _013_
*60 _014_
*61 _015_
*62 _016_
*63 _017_
*64 _018_
*65 _019_
*66 _020_
*67 _021_
*68 _022_
*69 _023_
*70 _024_
*71 _025_
*72 _026_
*73 _027_
*74 _028_
*75 _029_
*76 _030_
*77 _031_
*78 _032_
*79 _033_
*80 _034_
*81 _035_
*82 _036_
*83 _037_
*84 _038_
*85 _039_
*86 _040_
*87 _041_
*88 _042_
*89 _043_
*90 _044_
*91 _045_
*92 _046_
*93 _047_
*94 _048_
*95 _049_
*96 _050_
*97 _051_
*98 _052_
*99 _053_
*100 _054_
*101 _055_
*102 _056_
*103 _057_
*104 _058_
*105 _059_
*106 _060_
*107 _061_
*108 _062_
*109 _063_
*110 _064_
*111 _065_
*112 _066_
*113 _067_
*114 _068_
*115 _069_
*116 _070_
*117 _071_
*118 _072_
*119 _073_
*120 _074_
*121 _075_
*122 _076_
*123 _077_
*124 _078_
*125 _079_
*126 _080_
*127 _081_
*128 _082_
*129 _083_
*130 _084_
*131 _085_
*132 _086_
*133 _087_
*134 _088_
*135 _089_
*136 _090_
*137 _091_
*138 _092_
*139 _093_
*140 _094_
*141 _095_
*142 _096_
*143 _097_
*144 _098_
*145 _099_
*146 _100_
*147 _101_
*148 _102_
*149 _103_
*150 _104_
*151 _105_
*152 _106_
*153 _107_
*154 _108_
*155 _109_
*156 _110_
*157 _111_
*158 _112_
*159 _113_
*160 _114_
*161 _115_
*162 _116_
*163 _117_
*164 _118_
*165 _119_
*166 _120_
*167 _121_
*168 _122_
*169 _123_
*170 _124_
*171 _125_
*172 _126_
*173 _127_
*174 _128_
*175 _129_
*176 _130_
*177 _131_
*178 _132_
*179 _133_
*180 _134_
*181 _135_
*182 _136_
*183 _137_
*184 _138_
*185 _139_
*186 _140_
*187 _141_
*188 _142_
*189 _143_
*190 _144_
*191 _145_
*192 _146_
*193 _147_
*194 _148_
*195 _149_
*196 _150_
*197 _151_
*198 _152_
*199 _153_
*200 _154_
*201 _155_
*202 _156_
*203 _157_
*204 _158_
*205 _159_
*206 _160_
*207 _161_
*208 _162_
*209 _163_
*210 _164_
*211 _165_
*212 _166_
*213 _167_
*214 _168_
*215 _169_
*216 _170_
*217 _171_
*218 _172_
*219 _173_
*220 _174_
*221 _175_
*222 _176_
*223 _177_
*224 _178_
*225 _179_
*226 _180_
*227 _181_
*228 _182_
*229 _183_
*230 _184_
*231 _185_
*232 _186_
*233 _187_
*234 _188_
*235 _189_
*236 _190_
*237 _191_
*238 _192_
*239 _193_
*240 _194_
*241 _195_
*242 _196_
*243 _197_
*244 _198_
*245 _199_
*246 _200_
*247 _201_
*248 _202_
*249 _203_
*250 _204_
*251 _205_
*252 _206_
*253 _207_
*254 _208_
*255 _209_
*256 _210_
*257 _211_
*258 _212_
*259 _213_
*260 _214_
*261 _215_
*262 _216_
*263 _217_
*264 _218_
*265 _219_
*266 _220_
*267 _221_
*268 _222_
*269 _223_
*270 _224_
*271 _225_
*272 _226_
*273 addr_sel_\.in_0\[0\]
*274 addr_sel_\.in_0\[1\]
*275 addr_sel_\.in_0\[2\]
*276 addr_sel_\.in_0\[3\]
*277 addr_sel_\.in_0\[4\]
*278 addr_sel_\.in_0\[5\]
*279 addr_sel_\.in_0\[6\]
*280 addr_sel_\.in_0\[7\]
*281 addr_sel_\.in_1\[0\]
*282 addr_sel_\.in_1\[1\]
*283 addr_sel_\.in_1\[2\]
*284 addr_sel_\.in_1\[3\]
*285 addr_sel_\.in_1\[4\]
*286 addr_sel_\.in_1\[5\]
*287 addr_sel_\.in_1\[6\]
*288 addr_sel_\.in_1\[7\]
*289 alu_sel_mux\.in_2\[0\]
*290 alu_sel_mux\.in_2\[1\]
*291 alu_sel_mux\.in_2\[2\]
*292 alu_sel_mux\.in_2\[3\]
*293 alu_sel_mux\.in_2\[4\]
*294 alu_sel_mux\.in_2\[5\]
*295 alu_sel_mux\.in_2\[6\]
*296 alu_sel_mux\.in_2\[7\]
*297 clknet_0_clk
*298 clknet_2_0__leaf_clk
*299 clknet_2_1__leaf_clk
*300 clknet_2_2__leaf_clk
*301 clknet_2_3__leaf_clk
*302 data_sel_mux\.sel
*303 fsm_\.current_state\[2\]
*304 fsm_\.current_state\[4\]
*305 fsm_\.current_state\[7\]
*306 fsm_\.current_state\[8\]
*307 fsm_\.instr\[0\]
*308 fsm_\.instr\[1\]
*309 fsm_\.instr\[2\]
*310 fsm_\.instr\[3\]
*311 fsm_\.instr\[4\]
*312 fsm_\.instr\[5\]
*313 fsm_\.instr\[6\]
*314 fsm_\.instr\[7\]
*315 fsm_\.instr_en
*316 fsm_\.pc_en
*317 fsm_\.reg_en
*318 fsm_\.write
*319 net1
*320 net10
*321 net11
*322 net12
*323 net13
*324 net14
*325 net15
*326 net16
*327 net17
*328 net18
*329 net19
*330 net2
*331 net20
*332 net21
*333 net22
*334 net23
*335 net24
*336 net25
*337 net26
*338 net27
*339 net28
*340 net29
*341 net3
*342 net30
*343 net31
*344 net32
*345 net33
*346 net34
*347 net35
*348 net36
*349 net37
*350 net38
*351 net39
*352 net4
*353 net40
*354 net41
*355 net5
*356 net6
*357 net7
*358 net8
*359 net9
*360 FILLER_0_0_109
*361 FILLER_0_0_113
*362 FILLER_0_0_125
*363 FILLER_0_0_137
*364 FILLER_0_0_141
*365 FILLER_0_0_15
*366 FILLER_0_0_153
*367 FILLER_0_0_165
*368 FILLER_0_0_169
*369 FILLER_0_0_181
*370 FILLER_0_0_193
*371 FILLER_0_0_197
*372 FILLER_0_0_209
*373 FILLER_0_0_221
*374 FILLER_0_0_225
*375 FILLER_0_0_237
*376 FILLER_0_0_249
*377 FILLER_0_0_253
*378 FILLER_0_0_265
*379 FILLER_0_0_27
*380 FILLER_0_0_277
*381 FILLER_0_0_281
*382 FILLER_0_0_29
*383 FILLER_0_0_293
*384 FILLER_0_0_3
*385 FILLER_0_0_305
*386 FILLER_0_0_309
*387 FILLER_0_0_321
*388 FILLER_0_0_333
*389 FILLER_0_0_41
*390 FILLER_0_0_53
*391 FILLER_0_0_57
*392 FILLER_0_0_69
*393 FILLER_0_0_81
*394 FILLER_0_0_85
*395 FILLER_0_0_97
*396 FILLER_0_10_109
*397 FILLER_0_10_121
*398 FILLER_0_10_133
*399 FILLER_0_10_139
*400 FILLER_0_10_141
*401 FILLER_0_10_15
*402 FILLER_0_10_153
*403 FILLER_0_10_165
*404 FILLER_0_10_177
*405 FILLER_0_10_189
*406 FILLER_0_10_195
*407 FILLER_0_10_197
*408 FILLER_0_10_209
*409 FILLER_0_10_221
*410 FILLER_0_10_233
*411 FILLER_0_10_245
*412 FILLER_0_10_251
*413 FILLER_0_10_253
*414 FILLER_0_10_265
*415 FILLER_0_10_27
*416 FILLER_0_10_277
*417 FILLER_0_10_289
*418 FILLER_0_10_29
*419 FILLER_0_10_3
*420 FILLER_0_10_301
*421 FILLER_0_10_307
*422 FILLER_0_10_309
*423 FILLER_0_10_321
*424 FILLER_0_10_333
*425 FILLER_0_10_41
*426 FILLER_0_10_53
*427 FILLER_0_10_65
*428 FILLER_0_10_77
*429 FILLER_0_10_83
*430 FILLER_0_10_85
*431 FILLER_0_10_97
*432 FILLER_0_11_105
*433 FILLER_0_11_111
*434 FILLER_0_11_113
*435 FILLER_0_11_125
*436 FILLER_0_11_137
*437 FILLER_0_11_149
*438 FILLER_0_11_15
*439 FILLER_0_11_161
*440 FILLER_0_11_167
*441 FILLER_0_11_169
*442 FILLER_0_11_181
*443 FILLER_0_11_193
*444 FILLER_0_11_205
*445 FILLER_0_11_217
*446 FILLER_0_11_223
*447 FILLER_0_11_225
*448 FILLER_0_11_237
*449 FILLER_0_11_249
*450 FILLER_0_11_261
*451 FILLER_0_11_27
*452 FILLER_0_11_273
*453 FILLER_0_11_279
*454 FILLER_0_11_281
*455 FILLER_0_11_293
*456 FILLER_0_11_3
*457 FILLER_0_11_305
*458 FILLER_0_11_317
*459 FILLER_0_11_329
*460 FILLER_0_11_39
*461 FILLER_0_11_51
*462 FILLER_0_11_55
*463 FILLER_0_11_57
*464 FILLER_0_11_69
*465 FILLER_0_11_81
*466 FILLER_0_11_93
*467 FILLER_0_12_109
*468 FILLER_0_12_121
*469 FILLER_0_12_133
*470 FILLER_0_12_139
*471 FILLER_0_12_141
*472 FILLER_0_12_15
*473 FILLER_0_12_153
*474 FILLER_0_12_165
*475 FILLER_0_12_177
*476 FILLER_0_12_189
*477 FILLER_0_12_195
*478 FILLER_0_12_197
*479 FILLER_0_12_209
*480 FILLER_0_12_221
*481 FILLER_0_12_233
*482 FILLER_0_12_245
*483 FILLER_0_12_251
*484 FILLER_0_12_253
*485 FILLER_0_12_265
*486 FILLER_0_12_27
*487 FILLER_0_12_277
*488 FILLER_0_12_289
*489 FILLER_0_12_29
*490 FILLER_0_12_3
*491 FILLER_0_12_301
*492 FILLER_0_12_307
*493 FILLER_0_12_309
*494 FILLER_0_12_321
*495 FILLER_0_12_333
*496 FILLER_0_12_41
*497 FILLER_0_12_53
*498 FILLER_0_12_65
*499 FILLER_0_12_77
*500 FILLER_0_12_83
*501 FILLER_0_12_85
*502 FILLER_0_12_97
*503 FILLER_0_13_105
*504 FILLER_0_13_111
*505 FILLER_0_13_113
*506 FILLER_0_13_125
*507 FILLER_0_13_137
*508 FILLER_0_13_149
*509 FILLER_0_13_15
*510 FILLER_0_13_161
*511 FILLER_0_13_167
*512 FILLER_0_13_169
*513 FILLER_0_13_181
*514 FILLER_0_13_193
*515 FILLER_0_13_205
*516 FILLER_0_13_217
*517 FILLER_0_13_223
*518 FILLER_0_13_225
*519 FILLER_0_13_237
*520 FILLER_0_13_249
*521 FILLER_0_13_261
*522 FILLER_0_13_27
*523 FILLER_0_13_273
*524 FILLER_0_13_279
*525 FILLER_0_13_281
*526 FILLER_0_13_293
*527 FILLER_0_13_3
*528 FILLER_0_13_305
*529 FILLER_0_13_317
*530 FILLER_0_13_329
*531 FILLER_0_13_39
*532 FILLER_0_13_51
*533 FILLER_0_13_55
*534 FILLER_0_13_57
*535 FILLER_0_13_69
*536 FILLER_0_13_81
*537 FILLER_0_13_93
*538 FILLER_0_14_109
*539 FILLER_0_14_121
*540 FILLER_0_14_133
*541 FILLER_0_14_139
*542 FILLER_0_14_141
*543 FILLER_0_14_15
*544 FILLER_0_14_153
*545 FILLER_0_14_165
*546 FILLER_0_14_177
*547 FILLER_0_14_189
*548 FILLER_0_14_195
*549 FILLER_0_14_197
*550 FILLER_0_14_209
*551 FILLER_0_14_221
*552 FILLER_0_14_233
*553 FILLER_0_14_245
*554 FILLER_0_14_251
*555 FILLER_0_14_253
*556 FILLER_0_14_265
*557 FILLER_0_14_27
*558 FILLER_0_14_277
*559 FILLER_0_14_289
*560 FILLER_0_14_29
*561 FILLER_0_14_3
*562 FILLER_0_14_301
*563 FILLER_0_14_307
*564 FILLER_0_14_309
*565 FILLER_0_14_321
*566 FILLER_0_14_333
*567 FILLER_0_14_41
*568 FILLER_0_14_53
*569 FILLER_0_14_65
*570 FILLER_0_14_77
*571 FILLER_0_14_83
*572 FILLER_0_14_85
*573 FILLER_0_14_97
*574 FILLER_0_15_105
*575 FILLER_0_15_111
*576 FILLER_0_15_113
*577 FILLER_0_15_125
*578 FILLER_0_15_137
*579 FILLER_0_15_149
*580 FILLER_0_15_15
*581 FILLER_0_15_161
*582 FILLER_0_15_167
*583 FILLER_0_15_169
*584 FILLER_0_15_181
*585 FILLER_0_15_193
*586 FILLER_0_15_205
*587 FILLER_0_15_217
*588 FILLER_0_15_223
*589 FILLER_0_15_225
*590 FILLER_0_15_237
*591 FILLER_0_15_249
*592 FILLER_0_15_261
*593 FILLER_0_15_27
*594 FILLER_0_15_273
*595 FILLER_0_15_279
*596 FILLER_0_15_281
*597 FILLER_0_15_293
*598 FILLER_0_15_3
*599 FILLER_0_15_305
*600 FILLER_0_15_317
*601 FILLER_0_15_329
*602 FILLER_0_15_39
*603 FILLER_0_15_51
*604 FILLER_0_15_55
*605 FILLER_0_15_57
*606 FILLER_0_15_69
*607 FILLER_0_15_81
*608 FILLER_0_15_93
*609 FILLER_0_16_109
*610 FILLER_0_16_121
*611 FILLER_0_16_133
*612 FILLER_0_16_139
*613 FILLER_0_16_141
*614 FILLER_0_16_15
*615 FILLER_0_16_153
*616 FILLER_0_16_165
*617 FILLER_0_16_177
*618 FILLER_0_16_189
*619 FILLER_0_16_195
*620 FILLER_0_16_197
*621 FILLER_0_16_209
*622 FILLER_0_16_221
*623 FILLER_0_16_233
*624 FILLER_0_16_245
*625 FILLER_0_16_251
*626 FILLER_0_16_253
*627 FILLER_0_16_265
*628 FILLER_0_16_27
*629 FILLER_0_16_277
*630 FILLER_0_16_289
*631 FILLER_0_16_29
*632 FILLER_0_16_3
*633 FILLER_0_16_301
*634 FILLER_0_16_307
*635 FILLER_0_16_309
*636 FILLER_0_16_321
*637 FILLER_0_16_333
*638 FILLER_0_16_41
*639 FILLER_0_16_53
*640 FILLER_0_16_65
*641 FILLER_0_16_77
*642 FILLER_0_16_83
*643 FILLER_0_16_85
*644 FILLER_0_16_97
*645 FILLER_0_17_105
*646 FILLER_0_17_111
*647 FILLER_0_17_113
*648 FILLER_0_17_125
*649 FILLER_0_17_137
*650 FILLER_0_17_149
*651 FILLER_0_17_15
*652 FILLER_0_17_161
*653 FILLER_0_17_167
*654 FILLER_0_17_169
*655 FILLER_0_17_181
*656 FILLER_0_17_193
*657 FILLER_0_17_205
*658 FILLER_0_17_217
*659 FILLER_0_17_223
*660 FILLER_0_17_225
*661 FILLER_0_17_237
*662 FILLER_0_17_249
*663 FILLER_0_17_261
*664 FILLER_0_17_27
*665 FILLER_0_17_273
*666 FILLER_0_17_279
*667 FILLER_0_17_281
*668 FILLER_0_17_293
*669 FILLER_0_17_3
*670 FILLER_0_17_305
*671 FILLER_0_17_317
*672 FILLER_0_17_329
*673 FILLER_0_17_39
*674 FILLER_0_17_51
*675 FILLER_0_17_55
*676 FILLER_0_17_57
*677 FILLER_0_17_69
*678 FILLER_0_17_81
*679 FILLER_0_17_93
*680 FILLER_0_18_109
*681 FILLER_0_18_121
*682 FILLER_0_18_133
*683 FILLER_0_18_139
*684 FILLER_0_18_141
*685 FILLER_0_18_15
*686 FILLER_0_18_153
*687 FILLER_0_18_165
*688 FILLER_0_18_177
*689 FILLER_0_18_189
*690 FILLER_0_18_195
*691 FILLER_0_18_197
*692 FILLER_0_18_209
*693 FILLER_0_18_221
*694 FILLER_0_18_233
*695 FILLER_0_18_245
*696 FILLER_0_18_251
*697 FILLER_0_18_253
*698 FILLER_0_18_265
*699 FILLER_0_18_27
*700 FILLER_0_18_277
*701 FILLER_0_18_289
*702 FILLER_0_18_29
*703 FILLER_0_18_3
*704 FILLER_0_18_301
*705 FILLER_0_18_307
*706 FILLER_0_18_309
*707 FILLER_0_18_321
*708 FILLER_0_18_333
*709 FILLER_0_18_41
*710 FILLER_0_18_53
*711 FILLER_0_18_65
*712 FILLER_0_18_77
*713 FILLER_0_18_83
*714 FILLER_0_18_85
*715 FILLER_0_18_97
*716 FILLER_0_19_105
*717 FILLER_0_19_111
*718 FILLER_0_19_113
*719 FILLER_0_19_125
*720 FILLER_0_19_137
*721 FILLER_0_19_149
*722 FILLER_0_19_15
*723 FILLER_0_19_161
*724 FILLER_0_19_167
*725 FILLER_0_19_169
*726 FILLER_0_19_181
*727 FILLER_0_19_193
*728 FILLER_0_19_205
*729 FILLER_0_19_217
*730 FILLER_0_19_223
*731 FILLER_0_19_225
*732 FILLER_0_19_237
*733 FILLER_0_19_249
*734 FILLER_0_19_261
*735 FILLER_0_19_27
*736 FILLER_0_19_273
*737 FILLER_0_19_279
*738 FILLER_0_19_281
*739 FILLER_0_19_293
*740 FILLER_0_19_3
*741 FILLER_0_19_305
*742 FILLER_0_19_317
*743 FILLER_0_19_329
*744 FILLER_0_19_39
*745 FILLER_0_19_51
*746 FILLER_0_19_55
*747 FILLER_0_19_57
*748 FILLER_0_19_69
*749 FILLER_0_19_81
*750 FILLER_0_19_93
*751 FILLER_0_1_105
*752 FILLER_0_1_111
*753 FILLER_0_1_113
*754 FILLER_0_1_125
*755 FILLER_0_1_137
*756 FILLER_0_1_149
*757 FILLER_0_1_15
*758 FILLER_0_1_161
*759 FILLER_0_1_167
*760 FILLER_0_1_169
*761 FILLER_0_1_181
*762 FILLER_0_1_193
*763 FILLER_0_1_205
*764 FILLER_0_1_217
*765 FILLER_0_1_223
*766 FILLER_0_1_225
*767 FILLER_0_1_237
*768 FILLER_0_1_249
*769 FILLER_0_1_261
*770 FILLER_0_1_27
*771 FILLER_0_1_273
*772 FILLER_0_1_279
*773 FILLER_0_1_281
*774 FILLER_0_1_293
*775 FILLER_0_1_3
*776 FILLER_0_1_305
*777 FILLER_0_1_317
*778 FILLER_0_1_329
*779 FILLER_0_1_39
*780 FILLER_0_1_51
*781 FILLER_0_1_55
*782 FILLER_0_1_57
*783 FILLER_0_1_69
*784 FILLER_0_1_81
*785 FILLER_0_1_93
*786 FILLER_0_20_109
*787 FILLER_0_20_121
*788 FILLER_0_20_133
*789 FILLER_0_20_139
*790 FILLER_0_20_141
*791 FILLER_0_20_15
*792 FILLER_0_20_153
*793 FILLER_0_20_165
*794 FILLER_0_20_177
*795 FILLER_0_20_189
*796 FILLER_0_20_195
*797 FILLER_0_20_197
*798 FILLER_0_20_209
*799 FILLER_0_20_221
*800 FILLER_0_20_233
*801 FILLER_0_20_245
*802 FILLER_0_20_251
*803 FILLER_0_20_253
*804 FILLER_0_20_265
*805 FILLER_0_20_27
*806 FILLER_0_20_277
*807 FILLER_0_20_289
*808 FILLER_0_20_29
*809 FILLER_0_20_3
*810 FILLER_0_20_301
*811 FILLER_0_20_307
*812 FILLER_0_20_309
*813 FILLER_0_20_321
*814 FILLER_0_20_333
*815 FILLER_0_20_41
*816 FILLER_0_20_53
*817 FILLER_0_20_65
*818 FILLER_0_20_77
*819 FILLER_0_20_83
*820 FILLER_0_20_85
*821 FILLER_0_20_97
*822 FILLER_0_21_105
*823 FILLER_0_21_111
*824 FILLER_0_21_113
*825 FILLER_0_21_125
*826 FILLER_0_21_137
*827 FILLER_0_21_149
*828 FILLER_0_21_15
*829 FILLER_0_21_161
*830 FILLER_0_21_167
*831 FILLER_0_21_169
*832 FILLER_0_21_181
*833 FILLER_0_21_193
*834 FILLER_0_21_205
*835 FILLER_0_21_217
*836 FILLER_0_21_223
*837 FILLER_0_21_225
*838 FILLER_0_21_237
*839 FILLER_0_21_249
*840 FILLER_0_21_261
*841 FILLER_0_21_27
*842 FILLER_0_21_273
*843 FILLER_0_21_279
*844 FILLER_0_21_281
*845 FILLER_0_21_293
*846 FILLER_0_21_3
*847 FILLER_0_21_305
*848 FILLER_0_21_317
*849 FILLER_0_21_329
*850 FILLER_0_21_39
*851 FILLER_0_21_51
*852 FILLER_0_21_55
*853 FILLER_0_21_57
*854 FILLER_0_21_69
*855 FILLER_0_21_81
*856 FILLER_0_21_93
*857 FILLER_0_22_109
*858 FILLER_0_22_121
*859 FILLER_0_22_133
*860 FILLER_0_22_139
*861 FILLER_0_22_141
*862 FILLER_0_22_15
*863 FILLER_0_22_153
*864 FILLER_0_22_165
*865 FILLER_0_22_177
*866 FILLER_0_22_189
*867 FILLER_0_22_195
*868 FILLER_0_22_197
*869 FILLER_0_22_209
*870 FILLER_0_22_221
*871 FILLER_0_22_233
*872 FILLER_0_22_245
*873 FILLER_0_22_251
*874 FILLER_0_22_253
*875 FILLER_0_22_265
*876 FILLER_0_22_27
*877 FILLER_0_22_277
*878 FILLER_0_22_289
*879 FILLER_0_22_29
*880 FILLER_0_22_3
*881 FILLER_0_22_301
*882 FILLER_0_22_307
*883 FILLER_0_22_309
*884 FILLER_0_22_321
*885 FILLER_0_22_333
*886 FILLER_0_22_41
*887 FILLER_0_22_53
*888 FILLER_0_22_65
*889 FILLER_0_22_77
*890 FILLER_0_22_83
*891 FILLER_0_22_85
*892 FILLER_0_22_97
*893 FILLER_0_23_105
*894 FILLER_0_23_111
*895 FILLER_0_23_113
*896 FILLER_0_23_125
*897 FILLER_0_23_146
*898 FILLER_0_23_15
*899 FILLER_0_23_158
*900 FILLER_0_23_166
*901 FILLER_0_23_169
*902 FILLER_0_23_181
*903 FILLER_0_23_193
*904 FILLER_0_23_205
*905 FILLER_0_23_217
*906 FILLER_0_23_223
*907 FILLER_0_23_225
*908 FILLER_0_23_237
*909 FILLER_0_23_249
*910 FILLER_0_23_261
*911 FILLER_0_23_27
*912 FILLER_0_23_273
*913 FILLER_0_23_279
*914 FILLER_0_23_281
*915 FILLER_0_23_293
*916 FILLER_0_23_3
*917 FILLER_0_23_305
*918 FILLER_0_23_317
*919 FILLER_0_23_329
*920 FILLER_0_23_39
*921 FILLER_0_23_51
*922 FILLER_0_23_55
*923 FILLER_0_23_57
*924 FILLER_0_23_69
*925 FILLER_0_23_81
*926 FILLER_0_23_93
*927 FILLER_0_24_104
*928 FILLER_0_24_116
*929 FILLER_0_24_128
*930 FILLER_0_24_15
*931 FILLER_0_24_154
*932 FILLER_0_24_158
*933 FILLER_0_24_166
*934 FILLER_0_24_183
*935 FILLER_0_24_195
*936 FILLER_0_24_197
*937 FILLER_0_24_209
*938 FILLER_0_24_221
*939 FILLER_0_24_233
*940 FILLER_0_24_245
*941 FILLER_0_24_251
*942 FILLER_0_24_253
*943 FILLER_0_24_265
*944 FILLER_0_24_27
*945 FILLER_0_24_277
*946 FILLER_0_24_289
*947 FILLER_0_24_29
*948 FILLER_0_24_3
*949 FILLER_0_24_301
*950 FILLER_0_24_307
*951 FILLER_0_24_309
*952 FILLER_0_24_321
*953 FILLER_0_24_333
*954 FILLER_0_24_41
*955 FILLER_0_24_53
*956 FILLER_0_24_74
*957 FILLER_0_24_82
*958 FILLER_0_24_85
*959 FILLER_0_24_93
*960 FILLER_0_25_110
*961 FILLER_0_25_121
*962 FILLER_0_25_129
*963 FILLER_0_25_15
*964 FILLER_0_25_158
*965 FILLER_0_25_188
*966 FILLER_0_25_222
*967 FILLER_0_25_225
*968 FILLER_0_25_237
*969 FILLER_0_25_249
*970 FILLER_0_25_261
*971 FILLER_0_25_27
*972 FILLER_0_25_273
*973 FILLER_0_25_279
*974 FILLER_0_25_281
*975 FILLER_0_25_293
*976 FILLER_0_25_3
*977 FILLER_0_25_305
*978 FILLER_0_25_317
*979 FILLER_0_25_329
*980 FILLER_0_25_39
*981 FILLER_0_25_47
*982 FILLER_0_25_57
*983 FILLER_0_25_61
*984 FILLER_0_25_75
*985 FILLER_0_25_87
*986 FILLER_0_26_126
*987 FILLER_0_26_15
*988 FILLER_0_26_154
*989 FILLER_0_26_197
*990 FILLER_0_26_229
*991 FILLER_0_26_241
*992 FILLER_0_26_249
*993 FILLER_0_26_253
*994 FILLER_0_26_265
*995 FILLER_0_26_27
*996 FILLER_0_26_277
*997 FILLER_0_26_289
*998 FILLER_0_26_29
*999 FILLER_0_26_3
*1000 FILLER_0_26_301
*1001 FILLER_0_26_307
*1002 FILLER_0_26_309
*1003 FILLER_0_26_321
*1004 FILLER_0_26_333
*1005 FILLER_0_26_41
*1006 FILLER_0_26_83
*1007 FILLER_0_26_85
*1008 FILLER_0_27_111
*1009 FILLER_0_27_129
*1010 FILLER_0_27_15
*1011 FILLER_0_27_160
*1012 FILLER_0_27_169
*1013 FILLER_0_27_176
*1014 FILLER_0_27_230
*1015 FILLER_0_27_249
*1016 FILLER_0_27_261
*1017 FILLER_0_27_267
*1018 FILLER_0_27_27
*1019 FILLER_0_27_271
*1020 FILLER_0_27_279
*1021 FILLER_0_27_281
*1022 FILLER_0_27_293
*1023 FILLER_0_27_3
*1024 FILLER_0_27_305
*1025 FILLER_0_27_317
*1026 FILLER_0_27_329
*1027 FILLER_0_27_39
*1028 FILLER_0_27_54
*1029 FILLER_0_27_70
*1030 FILLER_0_27_82
*1031 FILLER_0_27_90
*1032 FILLER_0_28_116
*1033 FILLER_0_28_127
*1034 FILLER_0_28_144
*1035 FILLER_0_28_15
*1036 FILLER_0_28_161
*1037 FILLER_0_28_173
*1038 FILLER_0_28_181
*1039 FILLER_0_28_209
*1040 FILLER_0_28_229
*1041 FILLER_0_28_233
*1042 FILLER_0_28_241
*1043 FILLER_0_28_249
*1044 FILLER_0_28_260
*1045 FILLER_0_28_27
*1046 FILLER_0_28_288
*1047 FILLER_0_28_29
*1048 FILLER_0_28_3
*1049 FILLER_0_28_300
*1050 FILLER_0_28_309
*1051 FILLER_0_28_327
*1052 FILLER_0_28_331
*1053 FILLER_0_28_41
*1054 FILLER_0_28_63
*1055 FILLER_0_28_71
*1056 FILLER_0_28_80
*1057 FILLER_0_28_85
*1058 FILLER_0_28_89
*1059 FILLER_0_29_107
*1060 FILLER_0_29_111
*1061 FILLER_0_29_139
*1062 FILLER_0_29_15
*1063 FILLER_0_29_166
*1064 FILLER_0_29_185
*1065 FILLER_0_29_221
*1066 FILLER_0_29_231
*1067 FILLER_0_29_258
*1068 FILLER_0_29_27
*1069 FILLER_0_29_295
*1070 FILLER_0_29_299
*1071 FILLER_0_29_3
*1072 FILLER_0_29_334
*1073 FILLER_0_29_39
*1074 FILLER_0_29_55
*1075 FILLER_0_29_57
*1076 FILLER_0_29_65
*1077 FILLER_0_29_83
*1078 FILLER_0_29_88
*1079 FILLER_0_29_96
*1080 FILLER_0_2_109
*1081 FILLER_0_2_121
*1082 FILLER_0_2_133
*1083 FILLER_0_2_139
*1084 FILLER_0_2_141
*1085 FILLER_0_2_15
*1086 FILLER_0_2_153
*1087 FILLER_0_2_165
*1088 FILLER_0_2_177
*1089 FILLER_0_2_189
*1090 FILLER_0_2_195
*1091 FILLER_0_2_197
*1092 FILLER_0_2_209
*1093 FILLER_0_2_221
*1094 FILLER_0_2_233
*1095 FILLER_0_2_245
*1096 FILLER_0_2_251
*1097 FILLER_0_2_253
*1098 FILLER_0_2_265
*1099 FILLER_0_2_27
*1100 FILLER_0_2_277
*1101 FILLER_0_2_289
*1102 FILLER_0_2_29
*1103 FILLER_0_2_3
*1104 FILLER_0_2_301
*1105 FILLER_0_2_307
*1106 FILLER_0_2_309
*1107 FILLER_0_2_321
*1108 FILLER_0_2_333
*1109 FILLER_0_2_41
*1110 FILLER_0_2_53
*1111 FILLER_0_2_65
*1112 FILLER_0_2_77
*1113 FILLER_0_2_83
*1114 FILLER_0_2_85
*1115 FILLER_0_2_97
*1116 FILLER_0_30_115
*1117 FILLER_0_30_127
*1118 FILLER_0_30_139
*1119 FILLER_0_30_141
*1120 FILLER_0_30_145
*1121 FILLER_0_30_15
*1122 FILLER_0_30_154
*1123 FILLER_0_30_158
*1124 FILLER_0_30_167
*1125 FILLER_0_30_177
*1126 FILLER_0_30_225
*1127 FILLER_0_30_251
*1128 FILLER_0_30_253
*1129 FILLER_0_30_27
*1130 FILLER_0_30_285
*1131 FILLER_0_30_29
*1132 FILLER_0_30_297
*1133 FILLER_0_30_3
*1134 FILLER_0_30_305
*1135 FILLER_0_30_312
*1136 FILLER_0_30_333
*1137 FILLER_0_30_41
*1138 FILLER_0_30_45
*1139 FILLER_0_30_66
*1140 FILLER_0_31_129
*1141 FILLER_0_31_133
*1142 FILLER_0_31_149
*1143 FILLER_0_31_15
*1144 FILLER_0_31_159
*1145 FILLER_0_31_169
*1146 FILLER_0_31_177
*1147 FILLER_0_31_208
*1148 FILLER_0_31_216
*1149 FILLER_0_31_238
*1150 FILLER_0_31_242
*1151 FILLER_0_31_255
*1152 FILLER_0_31_27
*1153 FILLER_0_31_276
*1154 FILLER_0_31_3
*1155 FILLER_0_31_302
*1156 FILLER_0_31_327
*1157 FILLER_0_31_39
*1158 FILLER_0_31_47
*1159 FILLER_0_31_83
*1160 FILLER_0_31_93
*1161 FILLER_0_32_102
*1162 FILLER_0_32_119
*1163 FILLER_0_32_125
*1164 FILLER_0_32_134
*1165 FILLER_0_32_141
*1166 FILLER_0_32_15
*1167 FILLER_0_32_169
*1168 FILLER_0_32_181
*1169 FILLER_0_32_208
*1170 FILLER_0_32_220
*1171 FILLER_0_32_260
*1172 FILLER_0_32_264
*1173 FILLER_0_32_27
*1174 FILLER_0_32_273
*1175 FILLER_0_32_281
*1176 FILLER_0_32_29
*1177 FILLER_0_32_294
*1178 FILLER_0_32_3
*1179 FILLER_0_32_302
*1180 FILLER_0_32_325
*1181 FILLER_0_32_333
*1182 FILLER_0_32_41
*1183 FILLER_0_32_71
*1184 FILLER_0_32_81
*1185 FILLER_0_32_90
*1186 FILLER_0_32_98
*1187 FILLER_0_33_15
*1188 FILLER_0_33_165
*1189 FILLER_0_33_169
*1190 FILLER_0_33_184
*1191 FILLER_0_33_201
*1192 FILLER_0_33_213
*1193 FILLER_0_33_220
*1194 FILLER_0_33_232
*1195 FILLER_0_33_257
*1196 FILLER_0_33_263
*1197 FILLER_0_33_27
*1198 FILLER_0_33_297
*1199 FILLER_0_33_3
*1200 FILLER_0_33_301
*1201 FILLER_0_33_307
*1202 FILLER_0_33_319
*1203 FILLER_0_33_331
*1204 FILLER_0_33_39
*1205 FILLER_0_33_84
*1206 FILLER_0_34_100
*1207 FILLER_0_34_137
*1208 FILLER_0_34_144
*1209 FILLER_0_34_15
*1210 FILLER_0_34_152
*1211 FILLER_0_34_177
*1212 FILLER_0_34_224
*1213 FILLER_0_34_228
*1214 FILLER_0_34_247
*1215 FILLER_0_34_251
*1216 FILLER_0_34_253
*1217 FILLER_0_34_27
*1218 FILLER_0_34_279
*1219 FILLER_0_34_29
*1220 FILLER_0_34_293
*1221 FILLER_0_34_3
*1222 FILLER_0_34_309
*1223 FILLER_0_34_330
*1224 FILLER_0_34_334
*1225 FILLER_0_34_41
*1226 FILLER_0_34_82
*1227 FILLER_0_34_88
*1228 FILLER_0_35_109
*1229 FILLER_0_35_146
*1230 FILLER_0_35_15
*1231 FILLER_0_35_150
*1232 FILLER_0_35_163
*1233 FILLER_0_35_167
*1234 FILLER_0_35_178
*1235 FILLER_0_35_202
*1236 FILLER_0_35_211
*1237 FILLER_0_35_219
*1238 FILLER_0_35_225
*1239 FILLER_0_35_252
*1240 FILLER_0_35_27
*1241 FILLER_0_35_274
*1242 FILLER_0_35_279
*1243 FILLER_0_35_281
*1244 FILLER_0_35_292
*1245 FILLER_0_35_3
*1246 FILLER_0_35_304
*1247 FILLER_0_35_308
*1248 FILLER_0_35_323
*1249 FILLER_0_35_39
*1250 FILLER_0_35_51
*1251 FILLER_0_35_55
*1252 FILLER_0_35_57
*1253 FILLER_0_35_64
*1254 FILLER_0_35_83
*1255 FILLER_0_35_95
*1256 FILLER_0_36_108
*1257 FILLER_0_36_130
*1258 FILLER_0_36_139
*1259 FILLER_0_36_148
*1260 FILLER_0_36_15
*1261 FILLER_0_36_158
*1262 FILLER_0_36_165
*1263 FILLER_0_36_177
*1264 FILLER_0_36_194
*1265 FILLER_0_36_227
*1266 FILLER_0_36_244
*1267 FILLER_0_36_253
*1268 FILLER_0_36_267
*1269 FILLER_0_36_27
*1270 FILLER_0_36_274
*1271 FILLER_0_36_29
*1272 FILLER_0_36_3
*1273 FILLER_0_36_309
*1274 FILLER_0_36_334
*1275 FILLER_0_36_41
*1276 FILLER_0_36_53
*1277 FILLER_0_36_57
*1278 FILLER_0_36_77
*1279 FILLER_0_36_85
*1280 FILLER_0_36_96
*1281 FILLER_0_37_105
*1282 FILLER_0_37_111
*1283 FILLER_0_37_113
*1284 FILLER_0_37_144
*1285 FILLER_0_37_148
*1286 FILLER_0_37_182
*1287 FILLER_0_37_187
*1288 FILLER_0_37_216
*1289 FILLER_0_37_223
*1290 FILLER_0_37_225
*1291 FILLER_0_37_23
*1292 FILLER_0_37_234
*1293 FILLER_0_37_240
*1294 FILLER_0_37_267
*1295 FILLER_0_37_278
*1296 FILLER_0_37_28
*1297 FILLER_0_37_297
*1298 FILLER_0_37_3
*1299 FILLER_0_37_303
*1300 FILLER_0_37_329
*1301 FILLER_0_37_35
*1302 FILLER_0_37_43
*1303 FILLER_0_37_50
*1304 FILLER_0_37_57
*1305 FILLER_0_38_100
*1306 FILLER_0_38_113
*1307 FILLER_0_38_125
*1308 FILLER_0_38_133
*1309 FILLER_0_38_145
*1310 FILLER_0_38_15
*1311 FILLER_0_38_157
*1312 FILLER_0_38_165
*1313 FILLER_0_38_169
*1314 FILLER_0_38_181
*1315 FILLER_0_38_193
*1316 FILLER_0_38_200
*1317 FILLER_0_38_206
*1318 FILLER_0_38_210
*1319 FILLER_0_38_214
*1320 FILLER_0_38_218
*1321 FILLER_0_38_222
*1322 FILLER_0_38_225
*1323 FILLER_0_38_230
*1324 FILLER_0_38_234
*1325 FILLER_0_38_238
*1326 FILLER_0_38_242
*1327 FILLER_0_38_246
*1328 FILLER_0_38_259
*1329 FILLER_0_38_27
*1330 FILLER_0_38_271
*1331 FILLER_0_38_29
*1332 FILLER_0_38_290
*1333 FILLER_0_38_3
*1334 FILLER_0_38_302
*1335 FILLER_0_38_309
*1336 FILLER_0_38_318
*1337 FILLER_0_38_322
*1338 FILLER_0_38_327
*1339 FILLER_0_38_331
*1340 FILLER_0_38_41
*1341 FILLER_0_38_53
*1342 FILLER_0_38_76
*1343 FILLER_0_38_85
*1344 FILLER_0_3_105
*1345 FILLER_0_3_111
*1346 FILLER_0_3_113
*1347 FILLER_0_3_125
*1348 FILLER_0_3_137
*1349 FILLER_0_3_149
*1350 FILLER_0_3_15
*1351 FILLER_0_3_161
*1352 FILLER_0_3_167
*1353 FILLER_0_3_169
*1354 FILLER_0_3_181
*1355 FILLER_0_3_193
*1356 FILLER_0_3_205
*1357 FILLER_0_3_217
*1358 FILLER_0_3_223
*1359 FILLER_0_3_225
*1360 FILLER_0_3_237
*1361 FILLER_0_3_249
*1362 FILLER_0_3_261
*1363 FILLER_0_3_27
*1364 FILLER_0_3_273
*1365 FILLER_0_3_279
*1366 FILLER_0_3_281
*1367 FILLER_0_3_293
*1368 FILLER_0_3_3
*1369 FILLER_0_3_305
*1370 FILLER_0_3_317
*1371 FILLER_0_3_329
*1372 FILLER_0_3_39
*1373 FILLER_0_3_51
*1374 FILLER_0_3_55
*1375 FILLER_0_3_57
*1376 FILLER_0_3_69
*1377 FILLER_0_3_81
*1378 FILLER_0_3_93
*1379 FILLER_0_4_109
*1380 FILLER_0_4_121
*1381 FILLER_0_4_133
*1382 FILLER_0_4_139
*1383 FILLER_0_4_141
*1384 FILLER_0_4_15
*1385 FILLER_0_4_153
*1386 FILLER_0_4_165
*1387 FILLER_0_4_177
*1388 FILLER_0_4_189
*1389 FILLER_0_4_195
*1390 FILLER_0_4_197
*1391 FILLER_0_4_209
*1392 FILLER_0_4_221
*1393 FILLER_0_4_233
*1394 FILLER_0_4_245
*1395 FILLER_0_4_251
*1396 FILLER_0_4_253
*1397 FILLER_0_4_265
*1398 FILLER_0_4_27
*1399 FILLER_0_4_277
*1400 FILLER_0_4_289
*1401 FILLER_0_4_29
*1402 FILLER_0_4_3
*1403 FILLER_0_4_301
*1404 FILLER_0_4_307
*1405 FILLER_0_4_309
*1406 FILLER_0_4_321
*1407 FILLER_0_4_333
*1408 FILLER_0_4_41
*1409 FILLER_0_4_53
*1410 FILLER_0_4_65
*1411 FILLER_0_4_77
*1412 FILLER_0_4_83
*1413 FILLER_0_4_85
*1414 FILLER_0_4_97
*1415 FILLER_0_5_105
*1416 FILLER_0_5_111
*1417 FILLER_0_5_113
*1418 FILLER_0_5_125
*1419 FILLER_0_5_137
*1420 FILLER_0_5_149
*1421 FILLER_0_5_15
*1422 FILLER_0_5_161
*1423 FILLER_0_5_167
*1424 FILLER_0_5_169
*1425 FILLER_0_5_181
*1426 FILLER_0_5_193
*1427 FILLER_0_5_205
*1428 FILLER_0_5_217
*1429 FILLER_0_5_223
*1430 FILLER_0_5_225
*1431 FILLER_0_5_237
*1432 FILLER_0_5_249
*1433 FILLER_0_5_261
*1434 FILLER_0_5_27
*1435 FILLER_0_5_273
*1436 FILLER_0_5_279
*1437 FILLER_0_5_281
*1438 FILLER_0_5_293
*1439 FILLER_0_5_3
*1440 FILLER_0_5_305
*1441 FILLER_0_5_317
*1442 FILLER_0_5_329
*1443 FILLER_0_5_39
*1444 FILLER_0_5_51
*1445 FILLER_0_5_55
*1446 FILLER_0_5_57
*1447 FILLER_0_5_69
*1448 FILLER_0_5_81
*1449 FILLER_0_5_93
*1450 FILLER_0_6_109
*1451 FILLER_0_6_121
*1452 FILLER_0_6_133
*1453 FILLER_0_6_139
*1454 FILLER_0_6_141
*1455 FILLER_0_6_15
*1456 FILLER_0_6_153
*1457 FILLER_0_6_165
*1458 FILLER_0_6_177
*1459 FILLER_0_6_189
*1460 FILLER_0_6_195
*1461 FILLER_0_6_197
*1462 FILLER_0_6_209
*1463 FILLER_0_6_221
*1464 FILLER_0_6_233
*1465 FILLER_0_6_245
*1466 FILLER_0_6_251
*1467 FILLER_0_6_253
*1468 FILLER_0_6_265
*1469 FILLER_0_6_27
*1470 FILLER_0_6_277
*1471 FILLER_0_6_289
*1472 FILLER_0_6_29
*1473 FILLER_0_6_3
*1474 FILLER_0_6_301
*1475 FILLER_0_6_307
*1476 FILLER_0_6_309
*1477 FILLER_0_6_321
*1478 FILLER_0_6_333
*1479 FILLER_0_6_41
*1480 FILLER_0_6_53
*1481 FILLER_0_6_65
*1482 FILLER_0_6_77
*1483 FILLER_0_6_83
*1484 FILLER_0_6_85
*1485 FILLER_0_6_97
*1486 FILLER_0_7_105
*1487 FILLER_0_7_111
*1488 FILLER_0_7_113
*1489 FILLER_0_7_125
*1490 FILLER_0_7_137
*1491 FILLER_0_7_149
*1492 FILLER_0_7_15
*1493 FILLER_0_7_161
*1494 FILLER_0_7_167
*1495 FILLER_0_7_169
*1496 FILLER_0_7_181
*1497 FILLER_0_7_193
*1498 FILLER_0_7_205
*1499 FILLER_0_7_217
*1500 FILLER_0_7_223
*1501 FILLER_0_7_225
*1502 FILLER_0_7_237
*1503 FILLER_0_7_249
*1504 FILLER_0_7_261
*1505 FILLER_0_7_27
*1506 FILLER_0_7_273
*1507 FILLER_0_7_279
*1508 FILLER_0_7_281
*1509 FILLER_0_7_293
*1510 FILLER_0_7_3
*1511 FILLER_0_7_305
*1512 FILLER_0_7_317
*1513 FILLER_0_7_329
*1514 FILLER_0_7_39
*1515 FILLER_0_7_51
*1516 FILLER_0_7_55
*1517 FILLER_0_7_57
*1518 FILLER_0_7_69
*1519 FILLER_0_7_81
*1520 FILLER_0_7_93
*1521 FILLER_0_8_109
*1522 FILLER_0_8_121
*1523 FILLER_0_8_133
*1524 FILLER_0_8_139
*1525 FILLER_0_8_141
*1526 FILLER_0_8_15
*1527 FILLER_0_8_153
*1528 FILLER_0_8_165
*1529 FILLER_0_8_177
*1530 FILLER_0_8_189
*1531 FILLER_0_8_195
*1532 FILLER_0_8_197
*1533 FILLER_0_8_209
*1534 FILLER_0_8_221
*1535 FILLER_0_8_233
*1536 FILLER_0_8_245
*1537 FILLER_0_8_251
*1538 FILLER_0_8_253
*1539 FILLER_0_8_265
*1540 FILLER_0_8_27
*1541 FILLER_0_8_277
*1542 FILLER_0_8_289
*1543 FILLER_0_8_29
*1544 FILLER_0_8_3
*1545 FILLER_0_8_301
*1546 FILLER_0_8_307
*1547 FILLER_0_8_309
*1548 FILLER_0_8_321
*1549 FILLER_0_8_333
*1550 FILLER_0_8_41
*1551 FILLER_0_8_53
*1552 FILLER_0_8_65
*1553 FILLER_0_8_77
*1554 FILLER_0_8_83
*1555 FILLER_0_8_85
*1556 FILLER_0_8_97
*1557 FILLER_0_9_105
*1558 FILLER_0_9_111