*SPEF "ieee 1481-1999"
*DESIGN "tt_um_loco_choco"
*DATE "04:47:57 Friday April 19, 2024"
*VENDOR "The OpenROAD Project"
*PROGRAM "OpenROAD"
*VERSION "0889970d1790a2617e69f253221b8bd7626e51dc"
*DESIGN_FLOW "NAME_SCOPE LOCAL" "PIN_CAP NONE"
*DIVIDER /
*DELIMITER :
*BUS_DELIMITER []
*T_UNIT 1 NS
*C_UNIT 1 PF
*R_UNIT 1 OHM
*L_UNIT 1 HENRY

*NAME_MAP
*3 clk
*4 ena
*5 rst_n
*6 ui_in[0]
*7 ui_in[1]
*8 ui_in[2]
*9 ui_in[3]
*10 ui_in[4]
*11 ui_in[5]
*12 ui_in[6]
*13 ui_in[7]
*14 uio_in[0]
*15 uio_in[1]
*16 uio_in[2]
*17 uio_in[3]
*18 uio_in[4]
*19 uio_in[5]
*20 uio_in[6]
*21 uio_in[7]
*22 uio_oe[0]
*23 uio_oe[1]
*24 uio_oe[2]
*25 uio_oe[3]
*26 uio_oe[4]
*27 uio_oe[5]
*28 uio_oe[6]
*29 uio_oe[7]
*30 uio_out[0]
*31 uio_out[1]
*32 uio_out[2]
*33 uio_out[3]
*34 uio_out[4]
*35 uio_out[5]
*36 uio_out[6]
*37 uio_out[7]
*38 uo_out[0]
*39 uo_out[1]
*40 uo_out[2]
*41 uo_out[3]
*42 uo_out[4]
*43 uo_out[5]
*44 uo_out[6]
*45 uo_out[7]
*46 _000_
*47 _001_
*48 _002_
*49 _003_
*50 _004_
*51 _005_
*52 _006_
*53 _007_
*54 _008_
*55 _009_
*56 _010_
*57 _011_
*58 _012_
*59 _013_
*60 _014_
*61 _015_
*62 _016_
*63 _017_
*64 _018_
*65 _019_
*66 _020_
*67 _021_
*68 _022_
*69 _023_
*70 _024_
*71 _025_
*72 _026_
*73 _027_
*74 _028_
*75 _029_
*76 _030_
*77 _031_
*78 _032_
*79 _033_
*80 _034_
*81 _035_
*82 _036_
*83 _037_
*84 _038_
*85 _039_
*86 _040_
*87 _041_
*88 _042_
*89 _043_
*90 _044_
*91 _045_
*92 _046_
*93 _047_
*94 _048_
*95 _049_
*96 _050_
*97 _051_
*98 _052_
*99 _053_
*100 _054_
*101 _055_
*102 _056_
*103 _057_
*104 _058_
*105 _059_
*106 _060_
*107 _061_
*108 _062_
*109 _063_
*110 _064_
*111 _065_
*112 _066_
*113 _067_
*114 _068_
*115 _069_
*116 _070_
*117 _071_
*118 _072_
*119 _073_
*120 _074_
*121 _075_
*122 _076_
*123 _077_
*124 _078_
*125 _079_
*126 _080_
*127 _081_
*128 _082_
*129 _083_
*130 _084_
*131 _085_
*132 _086_
*133 _087_
*134 _088_
*135 _089_
*136 _090_
*137 _091_
*138 _092_
*139 _093_
*140 _094_
*141 _095_
*142 _096_
*143 _097_
*144 _098_
*145 _099_
*146 _100_
*147 _101_
*148 _102_
*149 _103_
*150 _104_
*151 _105_
*152 _106_
*153 _107_
*154 _108_
*155 _109_
*156 _110_
*157 _111_
*158 _112_
*159 _113_
*160 _114_
*161 _115_
*162 _116_
*163 _117_
*164 _118_
*165 _119_
*166 _120_
*167 _121_
*168 _122_
*169 _123_
*170 _124_
*171 _125_
*172 _126_
*173 _127_
*174 _128_
*175 _129_
*176 _130_
*177 _131_
*178 _132_
*179 _133_
*180 _134_
*181 _135_
*182 _136_
*183 _137_
*184 _138_
*185 _139_
*186 _140_
*187 _141_
*188 _142_
*189 _143_
*190 _144_
*191 _145_
*192 _146_
*193 _147_
*194 _148_
*195 _149_
*196 _150_
*197 _151_
*198 _152_
*199 _153_
*200 _154_
*201 _155_
*202 _156_
*203 _157_
*204 _158_
*205 _159_
*206 _160_
*207 _161_
*208 _162_
*209 _163_
*210 _164_
*211 _165_
*212 _166_
*213 _167_
*214 _168_
*215 _169_
*216 _170_
*217 _171_
*218 _172_
*219 _173_
*220 _174_
*221 _175_
*222 _176_
*223 _177_
*224 _178_
*225 _179_
*226 _180_
*227 _181_
*228 _182_
*229 _183_
*230 _184_
*231 _185_
*232 _186_
*233 _187_
*234 _188_
*235 _189_
*236 _190_
*237 _191_
*238 _192_
*239 _193_
*240 _194_
*241 _195_
*242 _196_
*243 _197_
*244 _198_
*245 _199_
*246 _200_
*247 _201_
*248 _202_
*249 _203_
*250 _204_
*251 _205_
*252 _206_
*253 _207_
*254 _208_
*255 _209_
*256 _210_
*257 _211_
*258 _212_
*259 _213_
*260 _214_
*261 _215_
*262 _216_
*263 _217_
*264 _218_
*265 _219_
*266 _220_
*267 _221_
*268 _222_
*269 _223_
*270 _224_
*271 _225_
*272 _226_
*273 _227_
*274 _228_
*275 _229_
*276 _230_
*277 _231_
*278 _232_
*279 _233_
*280 _234_
*281 _235_
*282 _236_
*283 _237_
*284 _238_
*285 _239_
*286 _240_
*287 _241_
*288 _242_
*289 _243_
*290 _244_
*291 _245_
*292 _246_
*293 _247_
*294 _248_
*295 _249_
*296 _250_
*297 _251_
*298 _252_
*299 _253_
*300 _254_
*301 _255_
*302 _256_
*303 _257_
*304 _258_
*305 _259_
*306 _260_
*307 _261_
*308 _262_
*309 _263_
*310 _264_
*311 _265_
*312 _266_
*313 _267_
*314 _268_
*315 _269_
*316 _270_
*317 _271_
*318 _272_
*319 _273_
*320 _274_
*321 _275_
*322 _276_
*323 _277_
*324 _278_
*325 _279_
*326 _280_
*327 _281_
*328 _282_
*329 _283_
*330 _284_
*331 _285_
*332 _286_
*333 _287_
*334 _288_
*335 _289_
*336 _290_
*337 _291_
*338 _292_
*339 _293_
*340 _294_
*341 _295_
*342 _296_
*343 _297_
*344 _298_
*345 _299_
*346 _300_
*347 _301_
*348 _302_
*349 _303_
*350 _304_
*351 _305_
*352 _306_
*353 _307_
*354 _308_
*355 _309_
*356 _310_
*357 addr_sel_\.in_0\[0\]
*358 addr_sel_\.in_0\[1\]
*359 addr_sel_\.in_0\[2\]
*360 addr_sel_\.in_0\[3\]
*361 addr_sel_\.in_0\[4\]
*362 addr_sel_\.in_0\[5\]
*363 addr_sel_\.in_0\[6\]
*364 addr_sel_\.in_0\[7\]
*365 addr_sel_\.in_1\[0\]
*366 addr_sel_\.in_1\[1\]
*367 addr_sel_\.in_1\[2\]
*368 addr_sel_\.in_1\[3\]
*369 addr_sel_\.in_1\[4\]
*370 addr_sel_\.in_1\[5\]
*371 addr_sel_\.in_1\[6\]
*372 addr_sel_\.in_1\[7\]
*373 alu_sel_mux\.in_0\[10\]
*374 alu_sel_mux\.in_0\[11\]
*375 alu_sel_mux\.in_0\[12\]
*376 alu_sel_mux\.in_0\[8\]
*377 alu_sel_mux\.in_0\[9\]
*378 alu_sel_mux\.in_2\[0\]
*379 alu_sel_mux\.in_2\[10\]
*380 alu_sel_mux\.in_2\[11\]
*381 alu_sel_mux\.in_2\[12\]
*382 alu_sel_mux\.in_2\[1\]
*383 alu_sel_mux\.in_2\[2\]
*384 alu_sel_mux\.in_2\[3\]
*385 alu_sel_mux\.in_2\[4\]
*386 alu_sel_mux\.in_2\[5\]
*387 alu_sel_mux\.in_2\[6\]
*388 alu_sel_mux\.in_2\[7\]
*389 alu_sel_mux\.in_2\[8\]
*390 alu_sel_mux\.in_2\[9\]
*391 alu_sel_mux\.in_3\[0\]
*392 alu_sel_mux\.in_3\[1\]
*393 alu_sel_mux\.in_3\[2\]
*394 alu_sel_mux\.in_3\[3\]
*395 alu_sel_mux\.in_3\[4\]
*396 alu_sel_mux\.in_3\[5\]
*397 alu_sel_mux\.in_3\[6\]
*398 alu_sel_mux\.in_3\[7\]
*399 clknet_0_clk
*400 clknet_3_0__leaf_clk
*401 clknet_3_1__leaf_clk
*402 clknet_3_2__leaf_clk
*403 clknet_3_3__leaf_clk
*404 clknet_3_4__leaf_clk
*405 clknet_3_5__leaf_clk
*406 clknet_3_6__leaf_clk
*407 clknet_3_7__leaf_clk
*408 data_sel_mux\.sel
*409 fsm_\.addr
*410 fsm_\.current_state\[0\]
*411 fsm_\.current_state\[10\]
*412 fsm_\.current_state\[12\]
*413 fsm_\.current_state\[1\]
*414 fsm_\.current_state\[2\]
*415 fsm_\.current_state\[3\]
*416 fsm_\.current_state\[4\]
*417 fsm_\.current_state\[6\]
*418 fsm_\.current_state\[8\]
*419 fsm_\.current_state\[9\]
*420 fsm_\.instr\[0\]
*421 fsm_\.instr\[1\]
*422 fsm_\.instr\[2\]
*423 fsm_\.instr\[3\]
*424 fsm_\.instr\[4\]
*425 fsm_\.instr\[5\]
*426 fsm_\.instr\[6\]
*427 fsm_\.instr\[7\]
*428 fsm_\.instr_en
*429 fsm_\.pc_en
*430 fsm_\.reg_en
*431 fsm_\.write
*432 instr_addr
*433 net1
*434 net10
*435 net11
*436 net12
*437 net13
*438 net14
*439 net15
*440 net16
*441 net17
*442 net18
*443 net19
*444 net2
*445 net20
*446 net21
*447 net22
*448 net23
*449 net24
*450 net25
*451 net26
*452 net27
*453 net28
*454 net29
*455 net3
*456 net30
*457 net31
*458 net32
*459 net33
*460 net34
*461 net35
*462 net36
*463 net37
*464 net38
*465 net39
*466 net4
*467 net40
*468 net41
*469 net42
*470 net43
*471 net44
*472 net45
*473 net46
*474 net47
*475 net48
*476 net49
*477 net5
*478 net50
*479 net51
*480 net52
*481 net53
*482 net54
*483 net55
*484 net56
*485 net57
*486 net58
*487 net59
*488 net6
*489 net60
*490 net61
*491 net62
*492 net63
*493 net64
*494 net65
*495 net66
*496 net7
*497 net8
*498 net9
*499 ANTENNA_1
*500 FILLER_0_0_109
*501 FILLER_0_0_113
*502 FILLER_0_0_125
*503 FILLER_0_0_137
*504 FILLER_0_0_141
*505 FILLER_0_0_15
*506 FILLER_0_0_153
*507 FILLER_0_0_165
*508 FILLER_0_0_169
*509 FILLER_0_0_181
*510 FILLER_0_0_193
*511 FILLER_0_0_197
*512 FILLER_0_0_209
*513 FILLER_0_0_221
*514 FILLER_0_0_225
*515 FILLER_0_0_237
*516 FILLER_0_0_249
*517 FILLER_0_0_253
*518 FILLER_0_0_265
*519 FILLER_0_0_27
*520 FILLER_0_0_277
*521 FILLER_0_0_281
*522 FILLER_0_0_29
*523 FILLER_0_0_293
*524 FILLER_0_0_3
*525 FILLER_0_0_305
*526 FILLER_0_0_309
*527 FILLER_0_0_321
*528 FILLER_0_0_333
*529 FILLER_0_0_41
*530 FILLER_0_0_53
*531 FILLER_0_0_57
*532 FILLER_0_0_69
*533 FILLER_0_0_81
*534 FILLER_0_0_85
*535 FILLER_0_0_97
*536 FILLER_0_10_109
*537 FILLER_0_10_121
*538 FILLER_0_10_133
*539 FILLER_0_10_139
*540 FILLER_0_10_141
*541 FILLER_0_10_15
*542 FILLER_0_10_153
*543 FILLER_0_10_165
*544 FILLER_0_10_177
*545 FILLER_0_10_189
*546 FILLER_0_10_195
*547 FILLER_0_10_197
*548 FILLER_0_10_209
*549 FILLER_0_10_221
*550 FILLER_0_10_233
*551 FILLER_0_10_245
*552 FILLER_0_10_251
*553 FILLER_0_10_253
*554 FILLER_0_10_265
*555 FILLER_0_10_27
*556 FILLER_0_10_277
*557 FILLER_0_10_289
*558 FILLER_0_10_29
*559 FILLER_0_10_3
*560 FILLER_0_10_301
*561 FILLER_0_10_307
*562 FILLER_0_10_309
*563 FILLER_0_10_321
*564 FILLER_0_10_333
*565 FILLER_0_10_41
*566 FILLER_0_10_53
*567 FILLER_0_10_65
*568 FILLER_0_10_77
*569 FILLER_0_10_83
*570 FILLER_0_10_85
*571 FILLER_0_10_97
*572 FILLER_0_11_105
*573 FILLER_0_11_111
*574 FILLER_0_11_113
*575 FILLER_0_11_125
*576 FILLER_0_11_137
*577 FILLER_0_11_149
*578 FILLER_0_11_15
*579 FILLER_0_11_161
*580 FILLER_0_11_167
*581 FILLER_0_11_169
*582 FILLER_0_11_181
*583 FILLER_0_11_193
*584 FILLER_0_11_205
*585 FILLER_0_11_217
*586 FILLER_0_11_223
*587 FILLER_0_11_225
*588 FILLER_0_11_237
*589 FILLER_0_11_249
*590 FILLER_0_11_261
*591 FILLER_0_11_27
*592 FILLER_0_11_273
*593 FILLER_0_11_279
*594 FILLER_0_11_281
*595 FILLER_0_11_293
*596 FILLER_0_11_3
*597 FILLER_0_11_305
*598 FILLER_0_11_317
*599 FILLER_0_11_329
*600 FILLER_0_11_39
*601 FILLER_0_11_51
*602 FILLER_0_11_55
*603 FILLER_0_11_57
*604 FILLER_0_11_69
*605 FILLER_0_11_81
*606 FILLER_0_11_93
*607 FILLER_0_12_109
*608 FILLER_0_12_121
*609 FILLER_0_12_133
*610 FILLER_0_12_139
*611 FILLER_0_12_141
*612 FILLER_0_12_15
*613 FILLER_0_12_153
*614 FILLER_0_12_165
*615 FILLER_0_12_177
*616 FILLER_0_12_189
*617 FILLER_0_12_195
*618 FILLER_0_12_197
*619 FILLER_0_12_209
*620 FILLER_0_12_221
*621 FILLER_0_12_233
*622 FILLER_0_12_245
*623 FILLER_0_12_251
*624 FILLER_0_12_253
*625 FILLER_0_12_265
*626 FILLER_0_12_27
*627 FILLER_0_12_277
*628 FILLER_0_12_289
*629 FILLER_0_12_29
*630 FILLER_0_12_3
*631 FILLER_0_12_301
*632 FILLER_0_12_307
*633 FILLER_0_12_309
*634 FILLER_0_12_321
*635 FILLER_0_12_333
*636 FILLER_0_12_41
*637 FILLER_0_12_53
*638 FILLER_0_12_65
*639 FILLER_0_12_77
*640 FILLER_0_12_83
*641 FILLER_0_12_85
*642 FILLER_0_12_97
*643 FILLER_0_13_105
*644 FILLER_0_13_111
*645 FILLER_0_13_113
*646 FILLER_0_13_125
*647 FILLER_0_13_137
*648 FILLER_0_13_149
*649 FILLER_0_13_15
*650 FILLER_0_13_161
*651 FILLER_0_13_167
*652 FILLER_0_13_169
*653 FILLER_0_13_181
*654 FILLER_0_13_193
*655 FILLER_0_13_205
*656 FILLER_0_13_217
*657 FILLER_0_13_223
*658 FILLER_0_13_225
*659 FILLER_0_13_237
*660 FILLER_0_13_249
*661 FILLER_0_13_261
*662 FILLER_0_13_27
*663 FILLER_0_13_273
*664 FILLER_0_13_279
*665 FILLER_0_13_281
*666 FILLER_0_13_293
*667 FILLER_0_13_3
*668 FILLER_0_13_305
*669 FILLER_0_13_317
*670 FILLER_0_13_329
*671 FILLER_0_13_39
*672 FILLER_0_13_51
*673 FILLER_0_13_55
*674 FILLER_0_13_57
*675 FILLER_0_13_69
*676 FILLER_0_13_81
*677 FILLER_0_13_93
*678 FILLER_0_14_109
*679 FILLER_0_14_121
*680 FILLER_0_14_133
*681 FILLER_0_14_139
*682 FILLER_0_14_141
*683 FILLER_0_14_15
*684 FILLER_0_14_153
*685 FILLER_0_14_165
*686 FILLER_0_14_177
*687 FILLER_0_14_189
*688 FILLER_0_14_195
*689 FILLER_0_14_197
*690 FILLER_0_14_209
*691 FILLER_0_14_221
*692 FILLER_0_14_233
*693 FILLER_0_14_245
*694 FILLER_0_14_251
*695 FILLER_0_14_253
*696 FILLER_0_14_265
*697 FILLER_0_14_27
*698 FILLER_0_14_277
*699 FILLER_0_14_289
*700 FILLER_0_14_29
*701 FILLER_0_14_3
*702 FILLER_0_14_301
*703 FILLER_0_14_307
*704 FILLER_0_14_309
*705 FILLER_0_14_321
*706 FILLER_0_14_333
*707 FILLER_0_14_41
*708 FILLER_0_14_53
*709 FILLER_0_14_65
*710 FILLER_0_14_77
*711 FILLER_0_14_83
*712 FILLER_0_14_85
*713 FILLER_0_14_97
*714 FILLER_0_15_105
*715 FILLER_0_15_111
*716 FILLER_0_15_113
*717 FILLER_0_15_125
*718 FILLER_0_15_137
*719 FILLER_0_15_149
*720 FILLER_0_15_15
*721 FILLER_0_15_161
*722 FILLER_0_15_167
*723 FILLER_0_15_169
*724 FILLER_0_15_181
*725 FILLER_0_15_193
*726 FILLER_0_15_205
*727 FILLER_0_15_217
*728 FILLER_0_15_223
*729 FILLER_0_15_225
*730 FILLER_0_15_237
*731 FILLER_0_15_249
*732 FILLER_0_15_261
*733 FILLER_0_15_27
*734 FILLER_0_15_273
*735 FILLER_0_15_279
*736 FILLER_0_15_281
*737 FILLER_0_15_293
*738 FILLER_0_15_3
*739 FILLER_0_15_305
*740 FILLER_0_15_317
*741 FILLER_0_15_329
*742 FILLER_0_15_39
*743 FILLER_0_15_51
*744 FILLER_0_15_55
*745 FILLER_0_15_57
*746 FILLER_0_15_69
*747 FILLER_0_15_81
*748 FILLER_0_15_93
*749 FILLER_0_16_109
*750 FILLER_0_16_121
*751 FILLER_0_16_133
*752 FILLER_0_16_139
*753 FILLER_0_16_141
*754 FILLER_0_16_15
*755 FILLER_0_16_153
*756 FILLER_0_16_165
*757 FILLER_0_16_177
*758 FILLER_0_16_189
*759 FILLER_0_16_195
*760 FILLER_0_16_197
*761 FILLER_0_16_209
*762 FILLER_0_16_221
*763 FILLER_0_16_233
*764 FILLER_0_16_245
*765 FILLER_0_16_251
*766 FILLER_0_16_253
*767 FILLER_0_16_265
*768 FILLER_0_16_27
*769 FILLER_0_16_277
*770 FILLER_0_16_289
*771 FILLER_0_16_29
*772 FILLER_0_16_3
*773 FILLER_0_16_301
*774 FILLER_0_16_307
*775 FILLER_0_16_309
*776 FILLER_0_16_321
*777 FILLER_0_16_333
*778 FILLER_0_16_41
*779 FILLER_0_16_53
*780 FILLER_0_16_65
*781 FILLER_0_16_77
*782 FILLER_0_16_83
*783 FILLER_0_16_85
*784 FILLER_0_16_97
*785 FILLER_0_17_105
*786 FILLER_0_17_111
*787 FILLER_0_17_113
*788 FILLER_0_17_125
*789 FILLER_0_17_137
*790 FILLER_0_17_149
*791 FILLER_0_17_15
*792 FILLER_0_17_161
*793 FILLER_0_17_167
*794 FILLER_0_17_169
*795 FILLER_0_17_181
*796 FILLER_0_17_193
*797 FILLER_0_17_205
*798 FILLER_0_17_217
*799 FILLER_0_17_223
*800 FILLER_0_17_225
*801 FILLER_0_17_237
*802 FILLER_0_17_249
*803 FILLER_0_17_261
*804 FILLER_0_17_27
*805 FILLER_0_17_273
*806 FILLER_0_17_279
*807 FILLER_0_17_281
*808 FILLER_0_17_293
*809 FILLER_0_17_3
*810 FILLER_0_17_305
*811 FILLER_0_17_317
*812 FILLER_0_17_329
*813 FILLER_0_17_39
*814 FILLER_0_17_51
*815 FILLER_0_17_55
*816 FILLER_0_17_57
*817 FILLER_0_17_69
*818 FILLER_0_17_81
*819 FILLER_0_17_93
*820 FILLER_0_18_109
*821 FILLER_0_18_121
*822 FILLER_0_18_133
*823 FILLER_0_18_139
*824 FILLER_0_18_141
*825 FILLER_0_18_15
*826 FILLER_0_18_153
*827 FILLER_0_18_165
*828 FILLER_0_18_177
*829 FILLER_0_18_189
*830 FILLER_0_18_195
*831 FILLER_0_18_197
*832 FILLER_0_18_209
*833 FILLER_0_18_221
*834 FILLER_0_18_233
*835 FILLER_0_18_245
*836 FILLER_0_18_251
*837 FILLER_0_18_253
*838 FILLER_0_18_265
*839 FILLER_0_18_27
*840 FILLER_0_18_277
*841 FILLER_0_18_289
*842 FILLER_0_18_29
*843 FILLER_0_18_3
*844 FILLER_0_18_301
*845 FILLER_0_18_307
*846 FILLER_0_18_309
*847 FILLER_0_18_321
*848 FILLER_0_18_333
*849 FILLER_0_18_41
*850 FILLER_0_18_53
*851 FILLER_0_18_65
*852 FILLER_0_18_77
*853 FILLER_0_18_83
*854 FILLER_0_18_85
*855 FILLER_0_18_97
*856 FILLER_0_19_105
*857 FILLER_0_19_111
*858 FILLER_0_19_113
*859 FILLER_0_19_125
*860 FILLER_0_19_137
*861 FILLER_0_19_149
*862 FILLER_0_19_15
*863 FILLER_0_19_161
*864 FILLER_0_19_167
*865 FILLER_0_19_169
*866 FILLER_0_19_181
*867 FILLER_0_19_193
*868 FILLER_0_19_205
*869 FILLER_0_19_217
*870 FILLER_0_19_223
*871 FILLER_0_19_225
*872 FILLER_0_19_237
*873 FILLER_0_19_249
*874 FILLER_0_19_261
*875 FILLER_0_19_27
*876 FILLER_0_19_273
*877 FILLER_0_19_279
*878 FILLER_0_19_281
*879 FILLER_0_19_293
*880 FILLER_0_19_3
*881 FILLER_0_19_305
*882 FILLER_0_19_317
*883 FILLER_0_19_329
*884 FILLER_0_19_39
*885 FILLER_0_19_51
*886 FILLER_0_19_55
*887 FILLER_0_19_57
*888 FILLER_0_19_69
*889 FILLER_0_19_81
*890 FILLER_0_19_93
*891 FILLER_0_1_105
*892 FILLER_0_1_111
*893 FILLER_0_1_113
*894 FILLER_0_1_125
*895 FILLER_0_1_137
*896 FILLER_0_1_149
*897 FILLER_0_1_15
*898 FILLER_0_1_161
*899 FILLER_0_1_167
*900 FILLER_0_1_169
*901 FILLER_0_1_181
*902 FILLER_0_1_193
*903 FILLER_0_1_205
*904 FILLER_0_1_217
*905 FILLER_0_1_223
*906 FILLER_0_1_225
*907 FILLER_0_1_237
*908 FILLER_0_1_249
*909 FILLER_0_1_261
*910 FILLER_0_1_27
*911 FILLER_0_1_273
*912 FILLER_0_1_279
*913 FILLER_0_1_281
*914 FILLER_0_1_293
*915 FILLER_0_1_3
*916 FILLER_0_1_305
*917 FILLER_0_1_317
*918 FILLER_0_1_329
*919 FILLER_0_1_39
*920 FILLER_0_1_51
*921 FILLER_0_1_55
*922 FILLER_0_1_57
*923 FILLER_0_1_69
*924 FILLER_0_1_81
*925 FILLER_0_1_93
*926 FILLER_0_20_109
*927 FILLER_0_20_121
*928 FILLER_0_20_133
*929 FILLER_0_20_139
*930 FILLER_0_20_141
*931 FILLER_0_20_149
*932 FILLER_0_20_15
*933 FILLER_0_20_160
*934 FILLER_0_20_172
*935 FILLER_0_20_178
*936 FILLER_0_20_195
*937 FILLER_0_20_205
*938 FILLER_0_20_217
*939 FILLER_0_20_229
*940 FILLER_0_20_241
*941 FILLER_0_20_249
*942 FILLER_0_20_253
*943 FILLER_0_20_265
*944 FILLER_0_20_27
*945 FILLER_0_20_277
*946 FILLER_0_20_289
*947 FILLER_0_20_29
*948 FILLER_0_20_3
*949 FILLER_0_20_301
*950 FILLER_0_20_307
*951 FILLER_0_20_309
*952 FILLER_0_20_321
*953 FILLER_0_20_333
*954 FILLER_0_20_41
*955 FILLER_0_20_53
*956 FILLER_0_20_65
*957 FILLER_0_20_77
*958 FILLER_0_20_83
*959 FILLER_0_20_85
*960 FILLER_0_20_97
*961 FILLER_0_21_103
*962 FILLER_0_21_111
*963 FILLER_0_21_113
*964 FILLER_0_21_132
*965 FILLER_0_21_15
*966 FILLER_0_21_166
*967 FILLER_0_21_169
*968 FILLER_0_21_177
*969 FILLER_0_21_211
*970 FILLER_0_21_221
*971 FILLER_0_21_238
*972 FILLER_0_21_250
*973 FILLER_0_21_262
*974 FILLER_0_21_27
*975 FILLER_0_21_274
*976 FILLER_0_21_281
*977 FILLER_0_21_293
*978 FILLER_0_21_3
*979 FILLER_0_21_305
*980 FILLER_0_21_317
*981 FILLER_0_21_329
*982 FILLER_0_21_42
*983 FILLER_0_21_54
*984 FILLER_0_21_57
*985 FILLER_0_21_63
*986 FILLER_0_21_80
*987 FILLER_0_21_86
*988 FILLER_0_22_112
*989 FILLER_0_22_129
*990 FILLER_0_22_133
*991 FILLER_0_22_137
*992 FILLER_0_22_141
*993 FILLER_0_22_147
*994 FILLER_0_22_15
*995 FILLER_0_22_160
*996 FILLER_0_22_168
*997 FILLER_0_22_191
*998 FILLER_0_22_231
*999 FILLER_0_22_239
*1000 FILLER_0_22_249
*1001 FILLER_0_22_253
*1002 FILLER_0_22_265
*1003 FILLER_0_22_277
*1004 FILLER_0_22_289
*1005 FILLER_0_22_3
*1006 FILLER_0_22_301
*1007 FILLER_0_22_307
*1008 FILLER_0_22_309
*1009 FILLER_0_22_321
*1010 FILLER_0_22_333
*1011 FILLER_0_22_42
*1012 FILLER_0_22_50
*1013 FILLER_0_23_113
*1014 FILLER_0_23_154
*1015 FILLER_0_23_166
*1016 FILLER_0_23_169
*1017 FILLER_0_23_201
*1018 FILLER_0_23_205
*1019 FILLER_0_23_213
*1020 FILLER_0_23_222
*1021 FILLER_0_23_230
*1022 FILLER_0_23_238
*1023 FILLER_0_23_245
*1024 FILLER_0_23_266
*1025 FILLER_0_23_278
*1026 FILLER_0_23_281
*1027 FILLER_0_23_293
*1028 FILLER_0_23_3
*1029 FILLER_0_23_305
*1030 FILLER_0_23_317
*1031 FILLER_0_23_329
*1032 FILLER_0_23_46
*1033 FILLER_0_23_52
*1034 FILLER_0_23_57
*1035 FILLER_0_23_82
*1036 FILLER_0_24_128
*1037 FILLER_0_24_15
*1038 FILLER_0_24_154
*1039 FILLER_0_24_162
*1040 FILLER_0_24_171
*1041 FILLER_0_24_183
*1042 FILLER_0_24_195
*1043 FILLER_0_24_200
*1044 FILLER_0_24_212
*1045 FILLER_0_24_225
*1046 FILLER_0_24_23
*1047 FILLER_0_24_237
*1048 FILLER_0_24_244
*1049 FILLER_0_24_250
*1050 FILLER_0_24_27
*1051 FILLER_0_24_273
*1052 FILLER_0_24_285
*1053 FILLER_0_24_297
*1054 FILLER_0_24_3
*1055 FILLER_0_24_305
*1056 FILLER_0_24_309
*1057 FILLER_0_24_321
*1058 FILLER_0_24_333
*1059 FILLER_0_24_39
*1060 FILLER_0_24_51
*1061 FILLER_0_24_59
*1062 FILLER_0_24_77
*1063 FILLER_0_24_85
*1064 FILLER_0_24_91
*1065 FILLER_0_24_99
*1066 FILLER_0_25_108
*1067 FILLER_0_25_126
*1068 FILLER_0_25_15
*1069 FILLER_0_25_157
*1070 FILLER_0_25_169
*1071 FILLER_0_25_190
*1072 FILLER_0_25_210
*1073 FILLER_0_25_223
*1074 FILLER_0_25_246
*1075 FILLER_0_25_253
*1076 FILLER_0_25_271
*1077 FILLER_0_25_279
*1078 FILLER_0_25_281
*1079 FILLER_0_25_293
*1080 FILLER_0_25_3
*1081 FILLER_0_25_305
*1082 FILLER_0_25_317
*1083 FILLER_0_25_329
*1084 FILLER_0_25_43
*1085 FILLER_0_25_55
*1086 FILLER_0_25_57
*1087 FILLER_0_25_83
*1088 FILLER_0_26_138
*1089 FILLER_0_26_168
*1090 FILLER_0_26_186
*1091 FILLER_0_26_213
*1092 FILLER_0_26_234
*1093 FILLER_0_26_269
*1094 FILLER_0_26_281
*1095 FILLER_0_26_293
*1096 FILLER_0_26_299
*1097 FILLER_0_26_3
*1098 FILLER_0_26_307
*1099 FILLER_0_26_309
*1100 FILLER_0_26_321
*1101 FILLER_0_26_333
*1102 FILLER_0_26_48
*1103 FILLER_0_26_79
*1104 FILLER_0_26_83
*1105 FILLER_0_26_85
*1106 FILLER_0_26_89
*1107 FILLER_0_26_98
*1108 FILLER_0_27_110
*1109 FILLER_0_27_122
*1110 FILLER_0_27_134
*1111 FILLER_0_27_15
*1112 FILLER_0_27_164
*1113 FILLER_0_27_169
*1114 FILLER_0_27_197
*1115 FILLER_0_27_219
*1116 FILLER_0_27_223
*1117 FILLER_0_27_225
*1118 FILLER_0_27_235
*1119 FILLER_0_27_250
*1120 FILLER_0_27_281
*1121 FILLER_0_27_293
*1122 FILLER_0_27_3
*1123 FILLER_0_27_305
*1124 FILLER_0_27_317
*1125 FILLER_0_27_329
*1126 FILLER_0_27_42
*1127 FILLER_0_27_54
*1128 FILLER_0_27_57
*1129 FILLER_0_28_104
*1130 FILLER_0_28_117
*1131 FILLER_0_28_15
*1132 FILLER_0_28_159
*1133 FILLER_0_28_186
*1134 FILLER_0_28_194
*1135 FILLER_0_28_207
*1136 FILLER_0_28_223
*1137 FILLER_0_28_251
*1138 FILLER_0_28_261
*1139 FILLER_0_28_27
*1140 FILLER_0_28_273
*1141 FILLER_0_28_281
*1142 FILLER_0_28_29
*1143 FILLER_0_28_298
*1144 FILLER_0_28_3
*1145 FILLER_0_28_306
*1146 FILLER_0_28_309
*1147 FILLER_0_28_314
*1148 FILLER_0_28_326
*1149 FILLER_0_28_334
*1150 FILLER_0_28_34
*1151 FILLER_0_28_38
*1152 FILLER_0_28_45
*1153 FILLER_0_28_57
*1154 FILLER_0_28_67
*1155 FILLER_0_28_79
*1156 FILLER_0_28_83
*1157 FILLER_0_28_85
*1158 FILLER_0_28_89
*1159 FILLER_0_28_93
*1160 FILLER_0_29_108
*1161 FILLER_0_29_121
*1162 FILLER_0_29_15
*1163 FILLER_0_29_151
*1164 FILLER_0_29_161
*1165 FILLER_0_29_169
*1166 FILLER_0_29_191
*1167 FILLER_0_29_199
*1168 FILLER_0_29_21
*1169 FILLER_0_29_215
*1170 FILLER_0_29_225
*1171 FILLER_0_29_236
*1172 FILLER_0_29_248
*1173 FILLER_0_29_260
*1174 FILLER_0_29_289
*1175 FILLER_0_29_3
*1176 FILLER_0_29_301
*1177 FILLER_0_29_326
*1178 FILLER_0_29_334
*1179 FILLER_0_29_57
*1180 FILLER_0_29_74
*1181 FILLER_0_29_86
*1182 FILLER_0_29_98
*1183 FILLER_0_2_109
*1184 FILLER_0_2_121
*1185 FILLER_0_2_133
*1186 FILLER_0_2_139
*1187 FILLER_0_2_141
*1188 FILLER_0_2_15
*1189 FILLER_0_2_153
*1190 FILLER_0_2_165
*1191 FILLER_0_2_177
*1192 FILLER_0_2_189
*1193 FILLER_0_2_195
*1194 FILLER_0_2_197
*1195 FILLER_0_2_209
*1196 FILLER_0_2_221
*1197 FILLER_0_2_233
*1198 FILLER_0_2_245
*1199 FILLER_0_2_251
*1200 FILLER_0_2_253
*1201 FILLER_0_2_265
*1202 FILLER_0_2_27
*1203 FILLER_0_2_277
*1204 FILLER_0_2_289
*1205 FILLER_0_2_29
*1206 FILLER_0_2_3
*1207 FILLER_0_2_301
*1208 FILLER_0_2_307
*1209 FILLER_0_2_309
*1210 FILLER_0_2_321
*1211 FILLER_0_2_333
*1212 FILLER_0_2_41
*1213 FILLER_0_2_53
*1214 FILLER_0_2_65
*1215 FILLER_0_2_77
*1216 FILLER_0_2_83
*1217 FILLER_0_2_85
*1218 FILLER_0_2_97
*1219 FILLER_0_30_11
*1220 FILLER_0_30_129
*1221 FILLER_0_30_154
*1222 FILLER_0_30_166
*1223 FILLER_0_30_177
*1224 FILLER_0_30_206
*1225 FILLER_0_30_214
*1226 FILLER_0_30_233
*1227 FILLER_0_30_247
*1228 FILLER_0_30_251
*1229 FILLER_0_30_253
*1230 FILLER_0_30_268
*1231 FILLER_0_30_273
*1232 FILLER_0_30_288
*1233 FILLER_0_30_29
*1234 FILLER_0_30_299
*1235 FILLER_0_30_3
*1236 FILLER_0_30_307
*1237 FILLER_0_30_318
*1238 FILLER_0_30_330
*1239 FILLER_0_30_334
*1240 FILLER_0_30_39
*1241 FILLER_0_30_51
*1242 FILLER_0_30_81
*1243 FILLER_0_30_85
*1244 FILLER_0_30_93
*1245 FILLER_0_31_100
*1246 FILLER_0_31_105
*1247 FILLER_0_31_129
*1248 FILLER_0_31_15
*1249 FILLER_0_31_163
*1250 FILLER_0_31_212
*1251 FILLER_0_31_225
*1252 FILLER_0_31_253
*1253 FILLER_0_31_289
*1254 FILLER_0_31_3
*1255 FILLER_0_31_331
*1256 FILLER_0_31_50
*1257 FILLER_0_31_57
*1258 FILLER_0_31_91
*1259 FILLER_0_32_116
*1260 FILLER_0_32_124
*1261 FILLER_0_32_15
*1262 FILLER_0_32_160
*1263 FILLER_0_32_168
*1264 FILLER_0_32_179
*1265 FILLER_0_32_19
*1266 FILLER_0_32_193
*1267 FILLER_0_32_204
*1268 FILLER_0_32_212
*1269 FILLER_0_32_233
*1270 FILLER_0_32_271
*1271 FILLER_0_32_279
*1272 FILLER_0_32_3
*1273 FILLER_0_32_303
*1274 FILLER_0_32_307
*1275 FILLER_0_32_318
*1276 FILLER_0_32_32
*1277 FILLER_0_32_330
*1278 FILLER_0_32_334
*1279 FILLER_0_32_44
*1280 FILLER_0_32_51
*1281 FILLER_0_32_81
*1282 FILLER_0_32_85
*1283 FILLER_0_33_11
*1284 FILLER_0_33_118
*1285 FILLER_0_33_130
*1286 FILLER_0_33_169
*1287 FILLER_0_33_181
*1288 FILLER_0_33_189
*1289 FILLER_0_33_218
*1290 FILLER_0_33_225
*1291 FILLER_0_33_247
*1292 FILLER_0_33_272
*1293 FILLER_0_33_281
*1294 FILLER_0_33_293
*1295 FILLER_0_33_299
*1296 FILLER_0_33_3
*1297 FILLER_0_33_324
*1298 FILLER_0_33_332
*1299 FILLER_0_33_52
*1300 FILLER_0_33_57
*1301 FILLER_0_33_80
*1302 FILLER_0_33_95
*1303 FILLER_0_34_11
*1304 FILLER_0_34_129
*1305 FILLER_0_34_141
*1306 FILLER_0_34_171
*1307 FILLER_0_34_183
*1308 FILLER_0_34_187
*1309 FILLER_0_34_227
*1310 FILLER_0_34_250
*1311 FILLER_0_34_280
*1312 FILLER_0_34_29
*1313 FILLER_0_34_292
*1314 FILLER_0_34_3
*1315 FILLER_0_34_304
*1316 FILLER_0_34_314
*1317 FILLER_0_34_331
*1318 FILLER_0_34_43
*1319 FILLER_0_34_49
*1320 FILLER_0_34_81
*1321 FILLER_0_34_85
*1322 FILLER_0_35_11
*1323 FILLER_0_35_129
*1324 FILLER_0_35_159
*1325 FILLER_0_35_186
*1326 FILLER_0_35_199
*1327 FILLER_0_35_210
*1328 FILLER_0_35_214
*1329 FILLER_0_35_223
*1330 FILLER_0_35_254
*1331 FILLER_0_35_278
*1332 FILLER_0_35_28
*1333 FILLER_0_35_297
*1334 FILLER_0_35_3
*1335 FILLER_0_35_315
*1336 FILLER_0_35_319
*1337 FILLER_0_35_330
*1338 FILLER_0_35_334
*1339 FILLER_0_35_37
*1340 FILLER_0_35_55
*1341 FILLER_0_35_61
*1342 FILLER_0_35_69
*1343 FILLER_0_35_86
*1344 FILLER_0_35_94
*1345 FILLER_0_36_138
*1346 FILLER_0_36_183
*1347 FILLER_0_36_197
*1348 FILLER_0_36_205
*1349 FILLER_0_36_213
*1350 FILLER_0_36_246
*1351 FILLER_0_36_253
*1352 FILLER_0_36_29
*1353 FILLER_0_36_293
*1354 FILLER_0_36_3
*1355 FILLER_0_36_303
*1356 FILLER_0_36_318
*1357 FILLER_0_36_330
*1358 FILLER_0_36_334
*1359 FILLER_0_36_46
*1360 FILLER_0_36_53
*1361 FILLER_0_36_65
*1362 FILLER_0_36_9
*1363 FILLER_0_36_95
*1364 FILLER_0_37_102
*1365 FILLER_0_37_129
*1366 FILLER_0_37_161
*1367 FILLER_0_37_183
*1368 FILLER_0_37_195
*1369 FILLER_0_37_220
*1370 FILLER_0_37_249
*1371 FILLER_0_37_276
*1372 FILLER_0_37_289
*1373 FILLER_0_37_3
*1374 FILLER_0_37_313
*1375 FILLER_0_37_325
*1376 FILLER_0_37_333
*1377 FILLER_0_37_43
*1378 FILLER_0_37_68
*1379 FILLER_0_37_94
*1380 FILLER_0_38_109
*1381 FILLER_0_38_113
*1382 FILLER_0_38_130
*1383 FILLER_0_38_138
*1384 FILLER_0_38_141
*1385 FILLER_0_38_15
*1386 FILLER_0_38_153
*1387 FILLER_0_38_157
*1388 FILLER_0_38_164
*1389 FILLER_0_38_169
*1390 FILLER_0_38_181
*1391 FILLER_0_38_189
*1392 FILLER_0_38_195
*1393 FILLER_0_38_20
*1394 FILLER_0_38_206
*1395 FILLER_0_38_210
*1396 FILLER_0_38_214
*1397 FILLER_0_38_218
*1398 FILLER_0_38_222
*1399 FILLER_0_38_225
*1400 FILLER_0_38_240
*1401 FILLER_0_38_246
*1402 FILLER_0_38_253
*1403 FILLER_0_38_262
*1404 FILLER_0_38_272
*1405 FILLER_0_38_281
*1406 FILLER_0_38_29
*1407 FILLER_0_38_293
*1408 FILLER_0_38_297
*1409 FILLER_0_38_3
*1410 FILLER_0_38_301
*1411 FILLER_0_38_307
*1412 FILLER_0_38_309
*1413 FILLER_0_38_321
*1414 FILLER_0_38_329
*1415 FILLER_0_38_37
*1416 FILLER_0_38_47
*1417 FILLER_0_38_55
*1418 FILLER_0_38_60
*1419 FILLER_0_38_68
*1420 FILLER_0_38_78
*1421 FILLER_0_38_85
*1422 FILLER_0_38_97
*1423 FILLER_0_3_105
*1424 FILLER_0_3_111
*1425 FILLER_0_3_113
*1426 FILLER_0_3_125
*1427 FILLER_0_3_137
*1428 FILLER_0_3_149
*1429 FILLER_0_3_15
*1430 FILLER_0_3_161
*1431 FILLER_0_3_167
*1432 FILLER_0_3_169
*1433 FILLER_0_3_181
*1434 FILLER_0_3_193
*1435 FILLER_0_3_205
*1436 FILLER_0_3_217
*1437 FILLER_0_3_223
*1438 FILLER_0_3_225
*1439 FILLER_0_3_237
*1440 FILLER_0_3_249
*1441 FILLER_0_3_261
*1442 FILLER_0_3_27
*1443 FILLER_0_3_273
*1444 FILLER_0_3_279
*1445 FILLER_0_3_281
*1446 FILLER_0_3_293
*1447 FILLER_0_3_3
*1448 FILLER_0_3_305
*1449 FILLER_0_3_317
*1450 FILLER_0_3_329
*1451 FILLER_0_3_39
*1452 FILLER_0_3_51
*1453 FILLER_0_3_55
*1454 FILLER_0_3_57
*1455 FILLER_0_3_69
*1456 FILLER_0_3_81
*1457 FILLER_0_3_93
*1458 FILLER_0_4_109
*1459 FILLER_0_4_121
*1460 FILLER_0_4_133
*1461 FILLER_0_4_139
*1462 FILLER_0_4_141
*1463 FILLER_0_4_15
*1464 FILLER_0_4_153
*1465 FILLER_0_4_165
*1466 FILLER_0_4_177
*1467 FILLER_0_4_189
*1468 FILLER_0_4_195
*1469 FILLER_0_4_197
*1470 FILLER_0_4_209
*1471 FILLER_0_4_221
*1472 FILLER_0_4_233
*1473 FILLER_0_4_245
*1474 FILLER_0_4_251
*1475 FILLER_0_4_253
*1476 FILLER_0_4_265
*1477 FILLER_0_4_27
*1478 FILLER_0_4_277
*1479 FILLER_0_4_289
*1480 FILLER_0_4_29
*1481 FILLER_0_4_3
*1482 FILLER_0_4_301
*1483 FILLER_0_4_307
*1484 FILLER_0_4_309
*1485 FILLER_0_4_321
*1486 FILLER_0_4_333
*1487 FILLER_0_4_41
*1488 FILLER_0_4_53
*1489 FILLER_0_4_65
*1490 FILLER_0_4_77
*1491 FILLER_0_4_83
*1492 FILLER_0_4_85
*1493 FILLER_0_4_97
*1494 FILLER_0_5_105
*1495 FILLER_0_5_111
*1496 FILLER_0_5_113
*1497 FILLER_0_5_125
*1498 FILLER_0_5_137
*1499 FILLER_0_5_149
*1500 FILLER_0_5_15
*1501 FILLER_0_5_161
*1502 FILLER_0_5_167
*1503 FILLER_0_5_169
*1504 FILLER_0_5_181
*1505 FILLER_0_5_193
*1506 FILLER_0_5_205
*1507 FILLER_0_5_217
*1508 FILLER_0_5_223
*1509 FILLER_0_5_225
*1510 FILLER_0_5_237
*1511 FILLER_0_5_249
*1512 FILLER_0_5_261
*1513 FILLER_0_5_27
*1514 FILLER_0_5_273
*1515 FILLER_0_5_279
*1516 FILLER_0_5_281
*1517 FILLER_0_5_293
*1518 FILLER_0_5_3
*1519 FILLER_0_5_305
*1520 FILLER_0_5_317
*1521 FILLER_0_5_329
*1522 FILLER_0_5_39
*1523 FILLER_0_5_51
*1524 FILLER_0_5_55
*1525 FILLER_0_5_57
*1526 FILLER_0_5_69
*1527 FILLER_0_5_81
*1528 FILLER_0_5_93
*1529 FILLER_0_6_109
*1530 FILLER_0_6_121
*1531 FILLER_0_6_133
*1532 FILLER_0_6_139
*1533 FILLER_0_6_141
*1534 FILLER_0_6_15
*1535 FILLER_0_6_153
*1536 FILLER_0_6_165
*1537 FILLER_0_6_177
*1538 FILLER_0_6_189
*1539 FILLER_0_6_195
*1540 FILLER_0_6_197
*1541 FILLER_0_6_209
*1542 FILLER_0_6_221
*1543 FILLER_0_6_233
*1544 FILLER_0_6_245
*1545 FILLER_0_6_251
*1546 FILLER_0_6_253
*1547 FILLER_0_6_265
*1548 FILLER_0_6_27
*1549 FILLER_0_6_277
*1550 FILLER_0_6_289
*1551 FILLER_0_6_29
*1552 FILLER_0_6_3
*1553 FILLER_0_6_301
*1554 FILLER_0_6_307
*1555 FILLER_0_6_309
*1556 FILLER_0_6_321
*1557 FILLER_0_6_333
*1558 FILLER_0_6_41
*1559 FILLER_0_6_53
*1560 FILLER_0_6_65
*1561 FILLER_0_6_77
*1562 FILLER_0_6_83
*1563 FILLER_0_6_85
*1564 FILLER_0_6_97
*1565 FILLER_0_7_105
*1566 FILLER_0_7_111
*1567 FILLER_0_7_113
*1568 FILLER_0_7_125
*1569 FILLER_0_7_137
*1570 FILLER_0_7_149
*1571 FILLER_0_7_15
*1572 FILLER_0_7_161
*1573 FILLER_0_7_167
*1574 FILLER_0_7_169
*1575 FILLER_0_7_181
*1576 FILLER_0_7_193
*1577 FILLER_0_7_205
*1578 FILLER_0_7_217
*1579 FILLER_0_7_223
*1580 FILLER_0_7_225
*1581 FILLER_0_7_237
*1582 FILLER_0_7_249
*1583 FILLER_0_7_261
*1584 FILLER_0_7_27
*1585 FILLER_0_7_273
*1586 FILLER_0_7_279
*1587 FILLER_0_7_281
*1588 FILLER_0_7_293
*1589 FILLER_0_7_3
*1590 FILLER_0_7_305
*1591 FILLER_0_7_317
*1592 FILLER_0_7_329
*1593 FILLER_0_7_39
*1594 FILLER_0_7_51
*1595 FILLER_0_7_55
*1596 FILLER_0_7_57