*SPEF "ieee 1481-1999"
*DESIGN "tt_um_hpretl_tt06_tdc"
*DATE "12:31:23 Friday April 12, 2024"
*VENDOR "The OpenROAD Project"
*PROGRAM "OpenROAD"
*VERSION "0889970d1790a2617e69f253221b8bd7626e51dc"
*DESIGN_FLOW "NAME_SCOPE LOCAL" "PIN_CAP NONE"
*DIVIDER /
*DELIMITER :
*BUS_DELIMITER []
*T_UNIT 1 NS
*C_UNIT 1 PF
*R_UNIT 1 OHM
*L_UNIT 1 HENRY

*NAME_MAP
*3 clk
*4 ena
*5 rst_n
*6 ui_in[0]
*7 ui_in[1]
*8 ui_in[2]
*9 ui_in[3]
*10 ui_in[4]
*11 ui_in[5]
*12 ui_in[6]
*13 ui_in[7]
*14 uio_in[0]
*15 uio_in[1]
*16 uio_in[2]
*17 uio_in[3]
*18 uio_in[4]
*19 uio_in[5]
*20 uio_in[6]
*21 uio_in[7]
*22 net7
*23 net8
*24 net9
*25 net10
*26 net11
*27 net12
*28 net13
*29 net14
*30 net15
*31 net16
*32 net17
*33 net18
*34 net19
*35 net20
*36 net21
*37 net22
*38 uo_out[0]
*39 uo_out[1]
*40 uo_out[2]
*41 uo_out[3]
*42 uo_out[4]
*43 uo_out[5]
*44 uo_out[6]
*45 uo_out[7]
*46 _000_
*47 _001_
*48 _002_
*49 _003_
*50 _004_
*51 _005_
*52 _006_
*53 _007_
*54 _008_
*55 _009_
*56 _010_
*57 _011_
*58 _012_
*59 _013_
*60 _014_
*61 _015_
*62 _016_
*63 _017_
*64 _018_
*65 _019_
*66 _020_
*67 _021_
*68 _022_
*69 _023_
*70 _024_
*71 _025_
*72 _026_
*73 _027_
*74 _028_
*75 _029_
*76 _030_
*77 _031_
*78 _032_
*79 _033_
*80 _034_
*81 _035_
*82 _036_
*83 _037_
*84 _038_
*85 _039_
*86 _040_
*87 _041_
*88 _042_
*89 _043_
*90 _044_
*91 _045_
*92 _046_
*93 _047_
*94 _048_
*95 _049_
*96 _050_
*97 _051_
*98 _052_
*99 _053_
*100 _054_
*101 _055_
*102 _056_
*103 _057_
*104 _058_
*105 _059_
*106 _060_
*107 _061_
*108 _062_
*109 _063_
*110 _064_
*111 _065_
*112 _066_
*113 _067_
*114 _068_
*115 _069_
*116 _070_
*117 _071_
*118 _072_
*119 _073_
*120 _074_
*121 _075_
*122 _076_
*123 _077_
*124 _078_
*125 _079_
*126 _080_
*127 _081_
*128 _082_
*129 _083_
*130 _084_
*131 _085_
*132 _086_
*133 _087_
*134 _088_
*135 _089_
*136 _090_
*137 _091_
*138 _092_
*139 _093_
*140 _094_
*141 _095_
*142 _096_
*143 _097_
*144 _098_
*145 _099_
*146 _100_
*147 _101_
*148 _102_
*149 _103_
*150 _104_
*151 _105_
*152 _106_
*153 _107_
*154 _108_
*155 _109_
*156 _110_
*157 _111_
*158 _112_
*159 _113_
*160 _114_
*161 _115_
*162 _116_
*163 _117_
*164 _118_
*165 _119_
*166 _120_
*167 _121_
*168 _122_
*169 _123_
*170 _124_
*171 _125_
*172 _126_
*173 _127_
*174 _128_
*175 _129_
*176 _130_
*177 _131_
*178 _132_
*179 _133_
*180 _134_
*181 _135_
*182 _136_
*183 _137_
*184 _138_
*185 _139_
*186 _140_
*187 _141_
*188 _142_
*189 _143_
*190 _144_
*191 _145_
*192 _146_
*193 _147_
*194 _148_
*195 _149_
*196 _150_
*197 _151_
*198 _152_
*199 _153_
*200 _154_
*201 _155_
*202 _156_
*203 _157_
*204 _158_
*205 _159_
*206 _160_
*207 _161_
*208 _162_
*209 _163_
*210 _164_
*211 _165_
*212 _166_
*213 _167_
*214 _168_
*215 _169_
*216 _170_
*217 _171_
*218 _172_
*219 _173_
*220 _174_
*221 _175_
*222 _176_
*223 _177_
*224 _178_
*225 _179_
*226 _180_
*227 _181_
*228 _182_
*229 _183_
*230 _184_
*231 _185_
*232 _186_
*233 _187_
*234 _188_
*235 _189_
*236 _190_
*237 _191_
*238 _192_
*239 _193_
*240 _194_
*241 _195_
*242 _196_
*243 _197_
*244 _198_
*245 _199_
*246 _200_
*247 _201_
*248 _202_
*249 _203_
*250 _204_
*251 _205_
*252 _206_
*253 _207_
*254 _208_
*255 _209_
*256 _210_
*257 clknet_0_clk
*258 clknet_4_0_0_clk
*259 clknet_4_10_0_clk
*260 clknet_4_11_0_clk
*261 clknet_4_12_0_clk
*262 clknet_4_13_0_clk
*263 clknet_4_14_0_clk
*264 clknet_4_15_0_clk
*265 clknet_4_1_0_clk
*266 clknet_4_2_0_clk
*267 clknet_4_3_0_clk
*268 clknet_4_4_0_clk
*269 clknet_4_5_0_clk
*270 clknet_4_6_0_clk
*271 clknet_4_7_0_clk
*272 clknet_4_8_0_clk
*273 clknet_4_9_0_clk
*274 net1
*275 net2
*276 net23
*277 net24
*278 net25
*279 net26
*280 net27
*281 net3
*282 net4
*283 net5
*284 net6
*285 tdc0\.o_result\[0\]
*286 tdc0\.o_result\[100\]
*287 tdc0\.o_result\[101\]
*288 tdc0\.o_result\[102\]
*289 tdc0\.o_result\[103\]
*290 tdc0\.o_result\[104\]
*291 tdc0\.o_result\[105\]
*292 tdc0\.o_result\[106\]
*293 tdc0\.o_result\[107\]
*294 tdc0\.o_result\[108\]
*295 tdc0\.o_result\[109\]
*296 tdc0\.o_result\[10\]
*297 tdc0\.o_result\[110\]
*298 tdc0\.o_result\[111\]
*299 tdc0\.o_result\[112\]
*300 tdc0\.o_result\[113\]
*301 tdc0\.o_result\[114\]
*302 tdc0\.o_result\[115\]
*303 tdc0\.o_result\[116\]
*304 tdc0\.o_result\[117\]
*305 tdc0\.o_result\[118\]
*306 tdc0\.o_result\[119\]
*307 tdc0\.o_result\[11\]
*308 tdc0\.o_result\[120\]
*309 tdc0\.o_result\[121\]
*310 tdc0\.o_result\[122\]
*311 tdc0\.o_result\[123\]
*312 tdc0\.o_result\[124\]
*313 tdc0\.o_result\[125\]
*314 tdc0\.o_result\[126\]
*315 tdc0\.o_result\[127\]
*316 tdc0\.o_result\[128\]
*317 tdc0\.o_result\[129\]
*318 tdc0\.o_result\[12\]
*319 tdc0\.o_result\[130\]
*320 tdc0\.o_result\[131\]
*321 tdc0\.o_result\[132\]
*322 tdc0\.o_result\[133\]
*323 tdc0\.o_result\[134\]
*324 tdc0\.o_result\[135\]
*325 tdc0\.o_result\[136\]
*326 tdc0\.o_result\[137\]
*327 tdc0\.o_result\[138\]
*328 tdc0\.o_result\[139\]
*329 tdc0\.o_result\[13\]
*330 tdc0\.o_result\[140\]
*331 tdc0\.o_result\[141\]
*332 tdc0\.o_result\[142\]
*333 tdc0\.o_result\[143\]
*334 tdc0\.o_result\[144\]
*335 tdc0\.o_result\[145\]
*336 tdc0\.o_result\[146\]
*337 tdc0\.o_result\[147\]
*338 tdc0\.o_result\[148\]
*339 tdc0\.o_result\[149\]
*340 tdc0\.o_result\[14\]
*341 tdc0\.o_result\[150\]
*342 tdc0\.o_result\[151\]
*343 tdc0\.o_result\[152\]
*344 tdc0\.o_result\[153\]
*345 tdc0\.o_result\[154\]
*346 tdc0\.o_result\[155\]
*347 tdc0\.o_result\[156\]
*348 tdc0\.o_result\[157\]
*349 tdc0\.o_result\[158\]
*350 tdc0\.o_result\[159\]
*351 tdc0\.o_result\[15\]
*352 tdc0\.o_result\[160\]
*353 tdc0\.o_result\[161\]
*354 tdc0\.o_result\[162\]
*355 tdc0\.o_result\[163\]
*356 tdc0\.o_result\[164\]
*357 tdc0\.o_result\[165\]
*358 tdc0\.o_result\[166\]
*359 tdc0\.o_result\[167\]
*360 tdc0\.o_result\[168\]
*361 tdc0\.o_result\[169\]
*362 tdc0\.o_result\[16\]
*363 tdc0\.o_result\[170\]
*364 tdc0\.o_result\[171\]
*365 tdc0\.o_result\[172\]
*366 tdc0\.o_result\[173\]
*367 tdc0\.o_result\[174\]
*368 tdc0\.o_result\[175\]
*369 tdc0\.o_result\[176\]
*370 tdc0\.o_result\[177\]
*371 tdc0\.o_result\[178\]
*372 tdc0\.o_result\[179\]
*373 tdc0\.o_result\[17\]
*374 tdc0\.o_result\[180\]
*375 tdc0\.o_result\[181\]
*376 tdc0\.o_result\[182\]
*377 tdc0\.o_result\[183\]
*378 tdc0\.o_result\[184\]
*379 tdc0\.o_result\[185\]
*380 tdc0\.o_result\[186\]
*381 tdc0\.o_result\[187\]
*382 tdc0\.o_result\[188\]
*383 tdc0\.o_result\[189\]
*384 tdc0\.o_result\[18\]
*385 tdc0\.o_result\[190\]
*386 tdc0\.o_result\[191\]
*387 tdc0\.o_result\[19\]
*388 tdc0\.o_result\[1\]
*389 tdc0\.o_result\[20\]
*390 tdc0\.o_result\[21\]
*391 tdc0\.o_result\[22\]
*392 tdc0\.o_result\[23\]
*393 tdc0\.o_result\[24\]
*394 tdc0\.o_result\[25\]
*395 tdc0\.o_result\[26\]
*396 tdc0\.o_result\[27\]
*397 tdc0\.o_result\[28\]
*398 tdc0\.o_result\[29\]
*399 tdc0\.o_result\[2\]
*400 tdc0\.o_result\[30\]
*401 tdc0\.o_result\[31\]
*402 tdc0\.o_result\[32\]
*403 tdc0\.o_result\[33\]
*404 tdc0\.o_result\[34\]
*405 tdc0\.o_result\[35\]
*406 tdc0\.o_result\[36\]
*407 tdc0\.o_result\[37\]
*408 tdc0\.o_result\[38\]
*409 tdc0\.o_result\[39\]
*410 tdc0\.o_result\[3\]
*411 tdc0\.o_result\[40\]
*412 tdc0\.o_result\[41\]
*413 tdc0\.o_result\[42\]
*414 tdc0\.o_result\[43\]
*415 tdc0\.o_result\[44\]
*416 tdc0\.o_result\[45\]
*417 tdc0\.o_result\[46\]
*418 tdc0\.o_result\[47\]
*419 tdc0\.o_result\[48\]
*420 tdc0\.o_result\[49\]
*421 tdc0\.o_result\[4\]
*422 tdc0\.o_result\[50\]
*423 tdc0\.o_result\[51\]
*424 tdc0\.o_result\[52\]
*425 tdc0\.o_result\[53\]
*426 tdc0\.o_result\[54\]
*427 tdc0\.o_result\[55\]
*428 tdc0\.o_result\[56\]
*429 tdc0\.o_result\[57\]
*430 tdc0\.o_result\[58\]
*431 tdc0\.o_result\[59\]
*432 tdc0\.o_result\[5\]
*433 tdc0\.o_result\[60\]
*434 tdc0\.o_result\[61\]
*435 tdc0\.o_result\[62\]
*436 tdc0\.o_result\[63\]
*437 tdc0\.o_result\[64\]
*438 tdc0\.o_result\[65\]
*439 tdc0\.o_result\[66\]
*440 tdc0\.o_result\[67\]
*441 tdc0\.o_result\[68\]
*442 tdc0\.o_result\[69\]
*443 tdc0\.o_result\[6\]
*444 tdc0\.o_result\[70\]
*445 tdc0\.o_result\[71\]
*446 tdc0\.o_result\[72\]
*447 tdc0\.o_result\[73\]
*448 tdc0\.o_result\[74\]
*449 tdc0\.o_result\[75\]
*450 tdc0\.o_result\[76\]
*451 tdc0\.o_result\[77\]
*452 tdc0\.o_result\[78\]
*453 tdc0\.o_result\[79\]
*454 tdc0\.o_result\[7\]
*455 tdc0\.o_result\[80\]
*456 tdc0\.o_result\[81\]
*457 tdc0\.o_result\[82\]
*458 tdc0\.o_result\[83\]
*459 tdc0\.o_result\[84\]
*460 tdc0\.o_result\[85\]
*461 tdc0\.o_result\[86\]
*462 tdc0\.o_result\[87\]
*463 tdc0\.o_result\[88\]
*464 tdc0\.o_result\[89\]
*465 tdc0\.o_result\[8\]
*466 tdc0\.o_result\[90\]
*467 tdc0\.o_result\[91\]
*468 tdc0\.o_result\[92\]
*469 tdc0\.o_result\[93\]
*470 tdc0\.o_result\[94\]
*471 tdc0\.o_result\[95\]
*472 tdc0\.o_result\[96\]
*473 tdc0\.o_result\[97\]
*474 tdc0\.o_result\[98\]
*475 tdc0\.o_result\[99\]
*476 tdc0\.o_result\[9\]
*477 tdc0\.w_dly_sig\[0\]
*478 tdc0\.w_dly_sig\[100\]
*479 tdc0\.w_dly_sig\[101\]
*480 tdc0\.w_dly_sig\[102\]
*481 tdc0\.w_dly_sig\[103\]
*482 tdc0\.w_dly_sig\[104\]
*483 tdc0\.w_dly_sig\[105\]
*484 tdc0\.w_dly_sig\[106\]
*485 tdc0\.w_dly_sig\[107\]
*486 tdc0\.w_dly_sig\[108\]
*487 tdc0\.w_dly_sig\[109\]
*488 tdc0\.w_dly_sig\[10\]
*489 tdc0\.w_dly_sig\[110\]
*490 tdc0\.w_dly_sig\[111\]
*491 tdc0\.w_dly_sig\[112\]
*492 tdc0\.w_dly_sig\[113\]
*493 tdc0\.w_dly_sig\[114\]
*494 tdc0\.w_dly_sig\[115\]
*495 tdc0\.w_dly_sig\[116\]
*496 tdc0\.w_dly_sig\[117\]
*497 tdc0\.w_dly_sig\[118\]
*498 tdc0\.w_dly_sig\[119\]
*499 tdc0\.w_dly_sig\[11\]
*500 tdc0\.w_dly_sig\[120\]
*501 tdc0\.w_dly_sig\[121\]
*502 tdc0\.w_dly_sig\[122\]
*503 tdc0\.w_dly_sig\[123\]
*504 tdc0\.w_dly_sig\[124\]
*505 tdc0\.w_dly_sig\[125\]
*506 tdc0\.w_dly_sig\[126\]
*507 tdc0\.w_dly_sig\[127\]
*508 tdc0\.w_dly_sig\[128\]
*509 tdc0\.w_dly_sig\[129\]
*510 tdc0\.w_dly_sig\[12\]
*511 tdc0\.w_dly_sig\[130\]
*512 tdc0\.w_dly_sig\[131\]
*513 tdc0\.w_dly_sig\[132\]
*514 tdc0\.w_dly_sig\[133\]
*515 tdc0\.w_dly_sig\[134\]
*516 tdc0\.w_dly_sig\[135\]
*517 tdc0\.w_dly_sig\[136\]
*518 tdc0\.w_dly_sig\[137\]
*519 tdc0\.w_dly_sig\[138\]
*520 tdc0\.w_dly_sig\[139\]
*521 tdc0\.w_dly_sig\[13\]
*522 tdc0\.w_dly_sig\[140\]
*523 tdc0\.w_dly_sig\[141\]
*524 tdc0\.w_dly_sig\[142\]
*525 tdc0\.w_dly_sig\[143\]
*526 tdc0\.w_dly_sig\[144\]
*527 tdc0\.w_dly_sig\[145\]
*528 tdc0\.w_dly_sig\[146\]
*529 tdc0\.w_dly_sig\[147\]
*530 tdc0\.w_dly_sig\[148\]
*531 tdc0\.w_dly_sig\[149\]
*532 tdc0\.w_dly_sig\[14\]
*533 tdc0\.w_dly_sig\[150\]
*534 tdc0\.w_dly_sig\[151\]
*535 tdc0\.w_dly_sig\[152\]
*536 tdc0\.w_dly_sig\[153\]
*537 tdc0\.w_dly_sig\[154\]
*538 tdc0\.w_dly_sig\[155\]
*539 tdc0\.w_dly_sig\[156\]
*540 tdc0\.w_dly_sig\[157\]
*541 tdc0\.w_dly_sig\[158\]
*542 tdc0\.w_dly_sig\[159\]
*543 tdc0\.w_dly_sig\[15\]
*544 tdc0\.w_dly_sig\[160\]
*545 tdc0\.w_dly_sig\[161\]
*546 tdc0\.w_dly_sig\[162\]
*547 tdc0\.w_dly_sig\[163\]
*548 tdc0\.w_dly_sig\[164\]
*549 tdc0\.w_dly_sig\[165\]
*550 tdc0\.w_dly_sig\[166\]
*551 tdc0\.w_dly_sig\[167\]
*552 tdc0\.w_dly_sig\[168\]
*553 tdc0\.w_dly_sig\[169\]
*554 tdc0\.w_dly_sig\[16\]
*555 tdc0\.w_dly_sig\[170\]
*556 tdc0\.w_dly_sig\[171\]
*557 tdc0\.w_dly_sig\[172\]
*558 tdc0\.w_dly_sig\[173\]
*559 tdc0\.w_dly_sig\[174\]
*560 tdc0\.w_dly_sig\[175\]
*561 tdc0\.w_dly_sig\[176\]
*562 tdc0\.w_dly_sig\[177\]
*563 tdc0\.w_dly_sig\[178\]
*564 tdc0\.w_dly_sig\[179\]
*565 tdc0\.w_dly_sig\[17\]
*566 tdc0\.w_dly_sig\[180\]
*567 tdc0\.w_dly_sig\[181\]
*568 tdc0\.w_dly_sig\[182\]
*569 tdc0\.w_dly_sig\[183\]
*570 tdc0\.w_dly_sig\[184\]
*571 tdc0\.w_dly_sig\[185\]
*572 tdc0\.w_dly_sig\[186\]
*573 tdc0\.w_dly_sig\[187\]
*574 tdc0\.w_dly_sig\[188\]
*575 tdc0\.w_dly_sig\[189\]
*576 tdc0\.w_dly_sig\[18\]
*577 tdc0\.w_dly_sig\[190\]
*578 tdc0\.w_dly_sig\[191\]
*579 tdc0\.w_dly_sig\[192\]
*580 tdc0\.w_dly_sig\[193\]
*581 tdc0\.w_dly_sig\[19\]
*582 tdc0\.w_dly_sig\[1\]
*583 tdc0\.w_dly_sig\[20\]
*584 tdc0\.w_dly_sig\[21\]
*585 tdc0\.w_dly_sig\[22\]
*586 tdc0\.w_dly_sig\[23\]
*587 tdc0\.w_dly_sig\[24\]
*588 tdc0\.w_dly_sig\[25\]
*589 tdc0\.w_dly_sig\[26\]
*590 tdc0\.w_dly_sig\[27\]
*591 tdc0\.w_dly_sig\[28\]
*592 tdc0\.w_dly_sig\[29\]
*593 tdc0\.w_dly_sig\[2\]
*594 tdc0\.w_dly_sig\[30\]
*595 tdc0\.w_dly_sig\[31\]
*596 tdc0\.w_dly_sig\[32\]
*597 tdc0\.w_dly_sig\[33\]
*598 tdc0\.w_dly_sig\[34\]
*599 tdc0\.w_dly_sig\[35\]
*600 tdc0\.w_dly_sig\[36\]
*601 tdc0\.w_dly_sig\[37\]
*602 tdc0\.w_dly_sig\[38\]
*603 tdc0\.w_dly_sig\[39\]
*604 tdc0\.w_dly_sig\[3\]
*605 tdc0\.w_dly_sig\[40\]
*606 tdc0\.w_dly_sig\[41\]
*607 tdc0\.w_dly_sig\[42\]
*608 tdc0\.w_dly_sig\[43\]
*609 tdc0\.w_dly_sig\[44\]
*610 tdc0\.w_dly_sig\[45\]
*611 tdc0\.w_dly_sig\[46\]
*612 tdc0\.w_dly_sig\[47\]
*613 tdc0\.w_dly_sig\[48\]
*614 tdc0\.w_dly_sig\[49\]
*615 tdc0\.w_dly_sig\[4\]
*616 tdc0\.w_dly_sig\[50\]
*617 tdc0\.w_dly_sig\[51\]
*618 tdc0\.w_dly_sig\[52\]
*619 tdc0\.w_dly_sig\[53\]
*620 tdc0\.w_dly_sig\[54\]
*621 tdc0\.w_dly_sig\[55\]
*622 tdc0\.w_dly_sig\[56\]
*623 tdc0\.w_dly_sig\[57\]
*624 tdc0\.w_dly_sig\[58\]
*625 tdc0\.w_dly_sig\[59\]
*626 tdc0\.w_dly_sig\[5\]
*627 tdc0\.w_dly_sig\[60\]
*628 tdc0\.w_dly_sig\[61\]
*629 tdc0\.w_dly_sig\[62\]
*630 tdc0\.w_dly_sig\[63\]
*631 tdc0\.w_dly_sig\[64\]
*632 tdc0\.w_dly_sig\[65\]
*633 tdc0\.w_dly_sig\[66\]
*634 tdc0\.w_dly_sig\[67\]
*635 tdc0\.w_dly_sig\[68\]
*636 tdc0\.w_dly_sig\[69\]
*637 tdc0\.w_dly_sig\[6\]
*638 tdc0\.w_dly_sig\[70\]
*639 tdc0\.w_dly_sig\[71\]
*640 tdc0\.w_dly_sig\[72\]
*641 tdc0\.w_dly_sig\[73\]
*642 tdc0\.w_dly_sig\[74\]
*643 tdc0\.w_dly_sig\[75\]
*644 tdc0\.w_dly_sig\[76\]
*645 tdc0\.w_dly_sig\[77\]
*646 tdc0\.w_dly_sig\[78\]
*647 tdc0\.w_dly_sig\[79\]
*648 tdc0\.w_dly_sig\[7\]
*649 tdc0\.w_dly_sig\[80\]
*650 tdc0\.w_dly_sig\[81\]
*651 tdc0\.w_dly_sig\[82\]
*652 tdc0\.w_dly_sig\[83\]
*653 tdc0\.w_dly_sig\[84\]
*654 tdc0\.w_dly_sig\[85\]
*655 tdc0\.w_dly_sig\[86\]
*656 tdc0\.w_dly_sig\[87\]
*657 tdc0\.w_dly_sig\[88\]
*658 tdc0\.w_dly_sig\[89\]
*659 tdc0\.w_dly_sig\[8\]
*660 tdc0\.w_dly_sig\[90\]
*661 tdc0\.w_dly_sig\[91\]
*662 tdc0\.w_dly_sig\[92\]
*663 tdc0\.w_dly_sig\[93\]
*664 tdc0\.w_dly_sig\[94\]
*665 tdc0\.w_dly_sig\[95\]
*666 tdc0\.w_dly_sig\[96\]
*667 tdc0\.w_dly_sig\[97\]
*668 tdc0\.w_dly_sig\[98\]
*669 tdc0\.w_dly_sig\[99\]
*670 tdc0\.w_dly_sig\[9\]
*671 tdc0\.w_dly_sig_n\[0\]
*672 tdc0\.w_dly_sig_n\[100\]
*673 tdc0\.w_dly_sig_n\[101\]
*674 tdc0\.w_dly_sig_n\[102\]
*675 tdc0\.w_dly_sig_n\[103\]
*676 tdc0\.w_dly_sig_n\[104\]
*677 tdc0\.w_dly_sig_n\[105\]
*678 tdc0\.w_dly_sig_n\[106\]
*679 tdc0\.w_dly_sig_n\[107\]
*680 tdc0\.w_dly_sig_n\[108\]
*681 tdc0\.w_dly_sig_n\[109\]
*682 tdc0\.w_dly_sig_n\[10\]
*683 tdc0\.w_dly_sig_n\[110\]
*684 tdc0\.w_dly_sig_n\[111\]
*685 tdc0\.w_dly_sig_n\[112\]
*686 tdc0\.w_dly_sig_n\[113\]
*687 tdc0\.w_dly_sig_n\[114\]
*688 tdc0\.w_dly_sig_n\[115\]
*689 tdc0\.w_dly_sig_n\[116\]
*690 tdc0\.w_dly_sig_n\[117\]
*691 tdc0\.w_dly_sig_n\[118\]
*692 tdc0\.w_dly_sig_n\[119\]
*693 tdc0\.w_dly_sig_n\[11\]
*694 tdc0\.w_dly_sig_n\[120\]
*695 tdc0\.w_dly_sig_n\[121\]
*696 tdc0\.w_dly_sig_n\[122\]
*697 tdc0\.w_dly_sig_n\[123\]
*698 tdc0\.w_dly_sig_n\[124\]
*699 tdc0\.w_dly_sig_n\[125\]
*700 tdc0\.w_dly_sig_n\[126\]
*701 tdc0\.w_dly_sig_n\[127\]
*702 tdc0\.w_dly_sig_n\[128\]
*703 tdc0\.w_dly_sig_n\[129\]
*704 tdc0\.w_dly_sig_n\[12\]
*705 tdc0\.w_dly_sig_n\[130\]
*706 tdc0\.w_dly_sig_n\[131\]
*707 tdc0\.w_dly_sig_n\[132\]
*708 tdc0\.w_dly_sig_n\[133\]
*709 tdc0\.w_dly_sig_n\[134\]
*710 tdc0\.w_dly_sig_n\[135\]
*711 tdc0\.w_dly_sig_n\[136\]
*712 tdc0\.w_dly_sig_n\[137\]
*713 tdc0\.w_dly_sig_n\[138\]
*714 tdc0\.w_dly_sig_n\[139\]
*715 tdc0\.w_dly_sig_n\[13\]
*716 tdc0\.w_dly_sig_n\[140\]
*717 tdc0\.w_dly_sig_n\[141\]
*718 tdc0\.w_dly_sig_n\[142\]
*719 tdc0\.w_dly_sig_n\[143\]
*720 tdc0\.w_dly_sig_n\[144\]
*721 tdc0\.w_dly_sig_n\[145\]
*722 tdc0\.w_dly_sig_n\[146\]
*723 tdc0\.w_dly_sig_n\[147\]
*724 tdc0\.w_dly_sig_n\[148\]
*725 tdc0\.w_dly_sig_n\[149\]
*726 tdc0\.w_dly_sig_n\[14\]
*727 tdc0\.w_dly_sig_n\[150\]
*728 tdc0\.w_dly_sig_n\[151\]
*729 tdc0\.w_dly_sig_n\[152\]
*730 tdc0\.w_dly_sig_n\[153\]
*731 tdc0\.w_dly_sig_n\[154\]
*732 tdc0\.w_dly_sig_n\[155\]
*733 tdc0\.w_dly_sig_n\[156\]
*734 tdc0\.w_dly_sig_n\[157\]
*735 tdc0\.w_dly_sig_n\[158\]
*736 tdc0\.w_dly_sig_n\[159\]
*737 tdc0\.w_dly_sig_n\[15\]
*738 tdc0\.w_dly_sig_n\[160\]
*739 tdc0\.w_dly_sig_n\[161\]
*740 tdc0\.w_dly_sig_n\[162\]
*741 tdc0\.w_dly_sig_n\[163\]
*742 tdc0\.w_dly_sig_n\[164\]
*743 tdc0\.w_dly_sig_n\[165\]
*744 tdc0\.w_dly_sig_n\[166\]
*745 tdc0\.w_dly_sig_n\[167\]
*746 tdc0\.w_dly_sig_n\[168\]
*747 tdc0\.w_dly_sig_n\[169\]
*748 tdc0\.w_dly_sig_n\[16\]
*749 tdc0\.w_dly_sig_n\[170\]
*750 tdc0\.w_dly_sig_n\[171\]
*751 tdc0\.w_dly_sig_n\[172\]
*752 tdc0\.w_dly_sig_n\[173\]
*753 tdc0\.w_dly_sig_n\[174\]
*754 tdc0\.w_dly_sig_n\[175\]
*755 tdc0\.w_dly_sig_n\[176\]
*756 tdc0\.w_dly_sig_n\[177\]
*757 tdc0\.w_dly_sig_n\[178\]
*758 tdc0\.w_dly_sig_n\[179\]
*759 tdc0\.w_dly_sig_n\[17\]
*760 tdc0\.w_dly_sig_n\[180\]
*761 tdc0\.w_dly_sig_n\[181\]
*762 tdc0\.w_dly_sig_n\[182\]
*763 tdc0\.w_dly_sig_n\[183\]
*764 tdc0\.w_dly_sig_n\[184\]
*765 tdc0\.w_dly_sig_n\[185\]
*766 tdc0\.w_dly_sig_n\[186\]
*767 tdc0\.w_dly_sig_n\[187\]
*768 tdc0\.w_dly_sig_n\[188\]
*769 tdc0\.w_dly_sig_n\[189\]
*770 tdc0\.w_dly_sig_n\[18\]
*771 tdc0\.w_dly_sig_n\[190\]
*772 tdc0\.w_dly_sig_n\[191\]
*773 tdc0\.w_dly_sig_n\[192\]
*774 tdc0\.w_dly_sig_n\[19\]
*775 tdc0\.w_dly_sig_n\[1\]
*776 tdc0\.w_dly_sig_n\[20\]
*777 tdc0\.w_dly_sig_n\[21\]
*778 tdc0\.w_dly_sig_n\[22\]
*779 tdc0\.w_dly_sig_n\[23\]
*780 tdc0\.w_dly_sig_n\[24\]
*781 tdc0\.w_dly_sig_n\[25\]
*782 tdc0\.w_dly_sig_n\[26\]
*783 tdc0\.w_dly_sig_n\[27\]
*784 tdc0\.w_dly_sig_n\[28\]
*785 tdc0\.w_dly_sig_n\[29\]
*786 tdc0\.w_dly_sig_n\[2\]
*787 tdc0\.w_dly_sig_n\[30\]
*788 tdc0\.w_dly_sig_n\[31\]
*789 tdc0\.w_dly_sig_n\[32\]
*790 tdc0\.w_dly_sig_n\[33\]
*791 tdc0\.w_dly_sig_n\[34\]
*792 tdc0\.w_dly_sig_n\[35\]
*793 tdc0\.w_dly_sig_n\[36\]
*794 tdc0\.w_dly_sig_n\[37\]
*795 tdc0\.w_dly_sig_n\[38\]
*796 tdc0\.w_dly_sig_n\[39\]
*797 tdc0\.w_dly_sig_n\[3\]
*798 tdc0\.w_dly_sig_n\[40\]
*799 tdc0\.w_dly_sig_n\[41\]
*800 tdc0\.w_dly_sig_n\[42\]
*801 tdc0\.w_dly_sig_n\[43\]
*802 tdc0\.w_dly_sig_n\[44\]
*803 tdc0\.w_dly_sig_n\[45\]
*804 tdc0\.w_dly_sig_n\[46\]
*805 tdc0\.w_dly_sig_n\[47\]
*806 tdc0\.w_dly_sig_n\[48\]
*807 tdc0\.w_dly_sig_n\[49\]
*808 tdc0\.w_dly_sig_n\[4\]
*809 tdc0\.w_dly_sig_n\[50\]
*810 tdc0\.w_dly_sig_n\[51\]
*811 tdc0\.w_dly_sig_n\[52\]
*812 tdc0\.w_dly_sig_n\[53\]
*813 tdc0\.w_dly_sig_n\[54\]
*814 tdc0\.w_dly_sig_n\[55\]
*815 tdc0\.w_dly_sig_n\[56\]
*816 tdc0\.w_dly_sig_n\[57\]
*817 tdc0\.w_dly_sig_n\[58\]
*818 tdc0\.w_dly_sig_n\[59\]
*819 tdc0\.w_dly_sig_n\[5\]
*820 tdc0\.w_dly_sig_n\[60\]
*821 tdc0\.w_dly_sig_n\[61\]
*822 tdc0\.w_dly_sig_n\[62\]
*823 tdc0\.w_dly_sig_n\[63\]
*824 tdc0\.w_dly_sig_n\[64\]
*825 tdc0\.w_dly_sig_n\[65\]
*826 tdc0\.w_dly_sig_n\[66\]
*827 tdc0\.w_dly_sig_n\[67\]
*828 tdc0\.w_dly_sig_n\[68\]
*829 tdc0\.w_dly_sig_n\[69\]
*830 tdc0\.w_dly_sig_n\[6\]
*831 tdc0\.w_dly_sig_n\[70\]
*832 tdc0\.w_dly_sig_n\[71\]
*833 tdc0\.w_dly_sig_n\[72\]
*834 tdc0\.w_dly_sig_n\[73\]
*835 tdc0\.w_dly_sig_n\[74\]
*836 tdc0\.w_dly_sig_n\[75\]
*837 tdc0\.w_dly_sig_n\[76\]
*838 tdc0\.w_dly_sig_n\[77\]
*839 tdc0\.w_dly_sig_n\[78\]
*840 tdc0\.w_dly_sig_n\[79\]
*841 tdc0\.w_dly_sig_n\[7\]
*842 tdc0\.w_dly_sig_n\[80\]
*843 tdc0\.w_dly_sig_n\[81\]
*844 tdc0\.w_dly_sig_n\[82\]
*845 tdc0\.w_dly_sig_n\[83\]
*846 tdc0\.w_dly_sig_n\[84\]
*847 tdc0\.w_dly_sig_n\[85\]
*848 tdc0\.w_dly_sig_n\[86\]
*849 tdc0\.w_dly_sig_n\[87\]
*850 tdc0\.w_dly_sig_n\[88\]
*851 tdc0\.w_dly_sig_n\[89\]
*852 tdc0\.w_dly_sig_n\[8\]
*853 tdc0\.w_dly_sig_n\[90\]
*854 tdc0\.w_dly_sig_n\[91\]
*855 tdc0\.w_dly_sig_n\[92\]
*856 tdc0\.w_dly_sig_n\[93\]
*857 tdc0\.w_dly_sig_n\[94\]
*858 tdc0\.w_dly_sig_n\[95\]
*859 tdc0\.w_dly_sig_n\[96\]
*860 tdc0\.w_dly_sig_n\[97\]
*861 tdc0\.w_dly_sig_n\[98\]
*862 tdc0\.w_dly_sig_n\[99\]
*863 tdc0\.w_dly_sig_n\[9\]
*864 ANTENNA_1
*865 FILLER_0_0_109
*866 FILLER_0_0_113
*867 FILLER_0_0_125
*868 FILLER_0_0_137
*869 FILLER_0_0_141
*870 FILLER_0_0_15
*871 FILLER_0_0_153
*872 FILLER_0_0_165
*873 FILLER_0_0_169
*874 FILLER_0_0_181
*875 FILLER_0_0_193
*876 FILLER_0_0_197
*877 FILLER_0_0_209
*878 FILLER_0_0_221
*879 FILLER_0_0_225
*880 FILLER_0_0_237
*881 FILLER_0_0_249
*882 FILLER_0_0_253
*883 FILLER_0_0_265
*884 FILLER_0_0_27
*885 FILLER_0_0_277
*886 FILLER_0_0_281
*887 FILLER_0_0_29
*888 FILLER_0_0_293
*889 FILLER_0_0_3
*890 FILLER_0_0_305
*891 FILLER_0_0_309
*892 FILLER_0_0_321
*893 FILLER_0_0_333
*894 FILLER_0_0_41
*895 FILLER_0_0_53
*896 FILLER_0_0_57
*897 FILLER_0_0_69
*898 FILLER_0_0_81
*899 FILLER_0_0_85
*900 FILLER_0_0_97
*901 FILLER_0_10_106
*902 FILLER_0_10_118
*903 FILLER_0_10_124
*904 FILLER_0_10_136
*905 FILLER_0_10_141
*906 FILLER_0_10_148
*907 FILLER_0_10_15
*908 FILLER_0_10_168
*909 FILLER_0_10_195
*910 FILLER_0_10_202
*911 FILLER_0_10_215
*912 FILLER_0_10_223
*913 FILLER_0_10_229
*914 FILLER_0_10_240
*915 FILLER_0_10_249
*916 FILLER_0_10_253
*917 FILLER_0_10_259
*918 FILLER_0_10_27
*919 FILLER_0_10_271
*920 FILLER_0_10_29
*921 FILLER_0_10_294
*922 FILLER_0_10_3
*923 FILLER_0_10_306
*924 FILLER_0_10_309
*925 FILLER_0_10_321
*926 FILLER_0_10_333
*927 FILLER_0_10_41
*928 FILLER_0_10_53
*929 FILLER_0_10_65
*930 FILLER_0_10_73
*931 FILLER_0_10_82
*932 FILLER_0_10_94
*933 FILLER_0_11_110
*934 FILLER_0_11_113
*935 FILLER_0_11_135
*936 FILLER_0_11_144
*937 FILLER_0_11_15
*938 FILLER_0_11_155
*939 FILLER_0_11_167
*940 FILLER_0_11_186
*941 FILLER_0_11_199
*942 FILLER_0_11_223
*943 FILLER_0_11_239
*944 FILLER_0_11_27
*945 FILLER_0_11_274
*946 FILLER_0_11_281
*947 FILLER_0_11_289
*948 FILLER_0_11_3
*949 FILLER_0_11_306
*950 FILLER_0_11_318
*951 FILLER_0_11_330
*952 FILLER_0_11_334
*953 FILLER_0_11_39
*954 FILLER_0_11_51
*955 FILLER_0_11_55
*956 FILLER_0_11_57
*957 FILLER_0_12_101
*958 FILLER_0_12_107
*959 FILLER_0_12_125
*960 FILLER_0_12_137
*961 FILLER_0_12_141
*962 FILLER_0_12_148
*963 FILLER_0_12_15
*964 FILLER_0_12_160
*965 FILLER_0_12_172
*966 FILLER_0_12_188
*967 FILLER_0_12_194
*968 FILLER_0_12_211
*969 FILLER_0_12_215
*970 FILLER_0_12_221
*971 FILLER_0_12_229
*972 FILLER_0_12_240
*973 FILLER_0_12_251
*974 FILLER_0_12_253
*975 FILLER_0_12_259
*976 FILLER_0_12_27
*977 FILLER_0_12_275
*978 FILLER_0_12_283
*979 FILLER_0_12_29
*980 FILLER_0_12_290
*981 FILLER_0_12_3
*982 FILLER_0_12_301
*983 FILLER_0_12_307
*984 FILLER_0_12_325
*985 FILLER_0_12_333
*986 FILLER_0_12_41
*987 FILLER_0_12_50
*988 FILLER_0_12_67
*989 FILLER_0_12_85
*990 FILLER_0_12_97
*991 FILLER_0_13_113
*992 FILLER_0_13_131
*993 FILLER_0_13_15
*994 FILLER_0_13_155
*995 FILLER_0_13_166
*996 FILLER_0_13_191
*997 FILLER_0_13_199
*998 FILLER_0_13_213
*999 FILLER_0_13_221
*1000 FILLER_0_13_225
*1001 FILLER_0_13_241
*1002 FILLER_0_13_263
*1003 FILLER_0_13_27
*1004 FILLER_0_13_281
*1005 FILLER_0_13_3
*1006 FILLER_0_13_332
*1007 FILLER_0_13_35
*1008 FILLER_0_13_60
*1009 FILLER_0_13_70
*1010 FILLER_0_13_78
*1011 FILLER_0_13_83
*1012 FILLER_0_13_87
*1013 FILLER_0_13_93
*1014 FILLER_0_14_113
*1015 FILLER_0_14_119
*1016 FILLER_0_14_141
*1017 FILLER_0_14_15
*1018 FILLER_0_14_158
*1019 FILLER_0_14_166
*1020 FILLER_0_14_172
*1021 FILLER_0_14_193
*1022 FILLER_0_14_197
*1023 FILLER_0_14_209
*1024 FILLER_0_14_218
*1025 FILLER_0_14_224
*1026 FILLER_0_14_237
*1027 FILLER_0_14_250
*1028 FILLER_0_14_253
*1029 FILLER_0_14_265
*1030 FILLER_0_14_27
*1031 FILLER_0_14_273
*1032 FILLER_0_14_285
*1033 FILLER_0_14_3
*1034 FILLER_0_14_300
*1035 FILLER_0_14_307
*1036 FILLER_0_14_324
*1037 FILLER_0_14_332
*1038 FILLER_0_14_48
*1039 FILLER_0_14_75
*1040 FILLER_0_15_111
*1041 FILLER_0_15_118
*1042 FILLER_0_15_15
*1043 FILLER_0_15_155
*1044 FILLER_0_15_163
*1045 FILLER_0_15_167
*1046 FILLER_0_15_190
*1047 FILLER_0_15_240
*1048 FILLER_0_15_266
*1049 FILLER_0_15_297
*1050 FILLER_0_15_3
*1051 FILLER_0_15_309
*1052 FILLER_0_15_313
*1053 FILLER_0_15_35
*1054 FILLER_0_15_54
*1055 FILLER_0_15_57
*1056 FILLER_0_15_65
*1057 FILLER_0_15_82
*1058 FILLER_0_15_92
*1059 FILLER_0_16_109
*1060 FILLER_0_16_123
*1061 FILLER_0_16_127
*1062 FILLER_0_16_131
*1063 FILLER_0_16_164
*1064 FILLER_0_16_170
*1065 FILLER_0_16_174
*1066 FILLER_0_16_180
*1067 FILLER_0_16_184
*1068 FILLER_0_16_188
*1069 FILLER_0_16_192
*1070 FILLER_0_16_197
*1071 FILLER_0_16_22
*1072 FILLER_0_16_222
*1073 FILLER_0_16_237
*1074 FILLER_0_16_249
*1075 FILLER_0_16_253
*1076 FILLER_0_16_273
*1077 FILLER_0_16_281
*1078 FILLER_0_16_29
*1079 FILLER_0_16_3
*1080 FILLER_0_16_303
*1081 FILLER_0_16_307
*1082 FILLER_0_16_309
*1083 FILLER_0_16_333
*1084 FILLER_0_16_50
*1085 FILLER_0_16_67
*1086 FILLER_0_16_79
*1087 FILLER_0_16_83
*1088 FILLER_0_16_96
*1089 FILLER_0_17_108
*1090 FILLER_0_17_113
*1091 FILLER_0_17_147
*1092 FILLER_0_17_15
*1093 FILLER_0_17_163
*1094 FILLER_0_17_169
*1095 FILLER_0_17_174
*1096 FILLER_0_17_199
*1097 FILLER_0_17_207
*1098 FILLER_0_17_22
*1099 FILLER_0_17_225
*1100 FILLER_0_17_229
*1101 FILLER_0_17_246
*1102 FILLER_0_17_258
*1103 FILLER_0_17_277
*1104 FILLER_0_17_295
*1105 FILLER_0_17_3
*1106 FILLER_0_17_31
*1107 FILLER_0_17_312
*1108 FILLER_0_17_330
*1109 FILLER_0_17_334
*1110 FILLER_0_17_38
*1111 FILLER_0_17_46
*1112 FILLER_0_17_57
*1113 FILLER_0_17_64
*1114 FILLER_0_17_76
*1115 FILLER_0_17_96
*1116 FILLER_0_18_116
*1117 FILLER_0_18_124
*1118 FILLER_0_18_134
*1119 FILLER_0_18_141
*1120 FILLER_0_18_160
*1121 FILLER_0_18_167
*1122 FILLER_0_18_171
*1123 FILLER_0_18_177
*1124 FILLER_0_18_189
*1125 FILLER_0_18_195
*1126 FILLER_0_18_20
*1127 FILLER_0_18_234
*1128 FILLER_0_18_246
*1129 FILLER_0_18_251
*1130 FILLER_0_18_268
*1131 FILLER_0_18_27
*1132 FILLER_0_18_3
*1133 FILLER_0_18_306
*1134 FILLER_0_18_315
*1135 FILLER_0_18_334
*1136 FILLER_0_18_38
*1137 FILLER_0_18_7
*1138 FILLER_0_18_83
*1139 FILLER_0_18_85
*1140 FILLER_0_19_104
*1141 FILLER_0_19_110
*1142 FILLER_0_19_143
*1143 FILLER_0_19_155
*1144 FILLER_0_19_165
*1145 FILLER_0_19_169
*1146 FILLER_0_19_203
*1147 FILLER_0_19_207
*1148 FILLER_0_19_216
*1149 FILLER_0_19_23
*1150 FILLER_0_19_239
*1151 FILLER_0_19_247
*1152 FILLER_0_19_258
*1153 FILLER_0_19_281
*1154 FILLER_0_19_285
*1155 FILLER_0_19_289
*1156 FILLER_0_19_3
*1157 FILLER_0_19_334
*1158 FILLER_0_19_41
*1159 FILLER_0_19_53
*1160 FILLER_0_19_7
*1161 FILLER_0_19_73
*1162 FILLER_0_19_77
*1163 FILLER_0_19_90
*1164 FILLER_0_19_98
*1165 FILLER_0_1_105
*1166 FILLER_0_1_111
*1167 FILLER_0_1_113
*1168 FILLER_0_1_125
*1169 FILLER_0_1_137
*1170 FILLER_0_1_149
*1171 FILLER_0_1_15
*1172 FILLER_0_1_161
*1173 FILLER_0_1_167
*1174 FILLER_0_1_169
*1175 FILLER_0_1_181
*1176 FILLER_0_1_193
*1177 FILLER_0_1_205
*1178 FILLER_0_1_217
*1179 FILLER_0_1_223
*1180 FILLER_0_1_225
*1181 FILLER_0_1_237
*1182 FILLER_0_1_249
*1183 FILLER_0_1_261
*1184 FILLER_0_1_27
*1185 FILLER_0_1_273
*1186 FILLER_0_1_279
*1187 FILLER_0_1_281
*1188 FILLER_0_1_293
*1189 FILLER_0_1_3
*1190 FILLER_0_1_305
*1191 FILLER_0_1_317
*1192 FILLER_0_1_329
*1193 FILLER_0_1_39
*1194 FILLER_0_1_51
*1195 FILLER_0_1_55
*1196 FILLER_0_1_57
*1197 FILLER_0_1_69
*1198 FILLER_0_1_81
*1199 FILLER_0_1_93
*1200 FILLER_0_20_102
*1201 FILLER_0_20_114
*1202 FILLER_0_20_121
*1203 FILLER_0_20_130
*1204 FILLER_0_20_134
*1205 FILLER_0_20_141
*1206 FILLER_0_20_148
*1207 FILLER_0_20_168
*1208 FILLER_0_20_181
*1209 FILLER_0_20_193
*1210 FILLER_0_20_221
*1211 FILLER_0_20_233
*1212 FILLER_0_20_245
*1213 FILLER_0_20_269
*1214 FILLER_0_20_281
*1215 FILLER_0_20_29
*1216 FILLER_0_20_3
*1217 FILLER_0_20_321
*1218 FILLER_0_20_333
*1219 FILLER_0_20_59
*1220 FILLER_0_20_63
*1221 FILLER_0_20_80
*1222 FILLER_0_20_85
*1223 FILLER_0_20_91
*1224 FILLER_0_20_95
*1225 FILLER_0_21_110
*1226 FILLER_0_21_116
*1227 FILLER_0_21_140
*1228 FILLER_0_21_146
*1229 FILLER_0_21_169
*1230 FILLER_0_21_17
*1231 FILLER_0_21_196
*1232 FILLER_0_21_204
*1233 FILLER_0_21_216
*1234 FILLER_0_21_236
*1235 FILLER_0_21_254
*1236 FILLER_0_21_272
*1237 FILLER_0_21_278
*1238 FILLER_0_21_297
*1239 FILLER_0_21_3
*1240 FILLER_0_21_318
*1241 FILLER_0_21_34
*1242 FILLER_0_21_40
*1243 FILLER_0_21_7
*1244 FILLER_0_21_73
*1245 FILLER_0_22_101
*1246 FILLER_0_22_110
*1247 FILLER_0_22_123
*1248 FILLER_0_22_135
*1249 FILLER_0_22_139
*1250 FILLER_0_22_141
*1251 FILLER_0_22_149
*1252 FILLER_0_22_160
*1253 FILLER_0_22_164
*1254 FILLER_0_22_180
*1255 FILLER_0_22_195
*1256 FILLER_0_22_202
*1257 FILLER_0_22_21
*1258 FILLER_0_22_218
*1259 FILLER_0_22_235
*1260 FILLER_0_22_256
*1261 FILLER_0_22_264
*1262 FILLER_0_22_27
*1263 FILLER_0_22_285
*1264 FILLER_0_22_29
*1265 FILLER_0_22_3
*1266 FILLER_0_22_305
*1267 FILLER_0_22_309
*1268 FILLER_0_22_313
*1269 FILLER_0_22_317
*1270 FILLER_0_22_330
*1271 FILLER_0_22_334
*1272 FILLER_0_22_37
*1273 FILLER_0_22_65
*1274 FILLER_0_22_82
*1275 FILLER_0_22_85
*1276 FILLER_0_22_93
*1277 FILLER_0_22_97
*1278 FILLER_0_23_107
*1279 FILLER_0_23_121
*1280 FILLER_0_23_132
*1281 FILLER_0_23_149
*1282 FILLER_0_23_163
*1283 FILLER_0_23_167
*1284 FILLER_0_23_169
*1285 FILLER_0_23_17
*1286 FILLER_0_23_179
*1287 FILLER_0_23_185
*1288 FILLER_0_23_195
*1289 FILLER_0_23_203
*1290 FILLER_0_23_215
*1291 FILLER_0_23_22
*1292 FILLER_0_23_220
*1293 FILLER_0_23_236
*1294 FILLER_0_23_253
*1295 FILLER_0_23_261
*1296 FILLER_0_23_267
*1297 FILLER_0_23_279
*1298 FILLER_0_23_281
*1299 FILLER_0_23_285
*1300 FILLER_0_23_29
*1301 FILLER_0_23_3
*1302 FILLER_0_23_302
*1303 FILLER_0_23_310
*1304 FILLER_0_23_319
*1305 FILLER_0_23_46
*1306 FILLER_0_23_53
*1307 FILLER_0_23_57
*1308 FILLER_0_23_65
*1309 FILLER_0_23_99
*1310 FILLER_0_24_105
*1311 FILLER_0_24_119
*1312 FILLER_0_24_130
*1313 FILLER_0_24_136
*1314 FILLER_0_24_141
*1315 FILLER_0_24_153
*1316 FILLER_0_24_157
*1317 FILLER_0_24_173
*1318 FILLER_0_24_179
*1319 FILLER_0_24_187
*1320 FILLER_0_24_194
*1321 FILLER_0_24_202
*1322 FILLER_0_24_21
*1323 FILLER_0_24_219
*1324 FILLER_0_24_228
*1325 FILLER_0_24_241
*1326 FILLER_0_24_247
*1327 FILLER_0_24_251
*1328 FILLER_0_24_253
*1329 FILLER_0_24_258
*1330 FILLER_0_24_288
*1331 FILLER_0_24_3
*1332 FILLER_0_24_309
*1333 FILLER_0_24_38
*1334 FILLER_0_24_42
*1335 FILLER_0_24_63
*1336 FILLER_0_24_77
*1337 FILLER_0_24_83
*1338 FILLER_0_24_85
*1339 FILLER_0_25_109
*1340 FILLER_0_25_113
*1341 FILLER_0_25_135
*1342 FILLER_0_25_15
*1343 FILLER_0_25_164
*1344 FILLER_0_25_169
*1345 FILLER_0_25_177
*1346 FILLER_0_25_194
*1347 FILLER_0_25_209
*1348 FILLER_0_25_222