*SPEF "ieee 1481-1999"
*DESIGN "tt_um_hpretl_tt06_tdc"
*DATE "11:11:11 Fri 11 11, 1111"
*VENDOR "OpenRCX"
*PROGRAM "Parallel Extraction"
*VERSION "1.0"
*DESIGN_FLOW "NAME_SCOPE LOCAL" "PIN_CAP NONE"
*DIVIDER /
*DELIMITER :
*BUS_DELIMITER []
*T_UNIT 1 NS
*C_UNIT 1 PF
*R_UNIT 1 OHM
*L_UNIT 1 HENRY

*NAME_MAP
*3 clk
*4 ena
*5 rst_n
*6 ui_in[0]
*7 ui_in[1]
*8 ui_in[2]
*9 ui_in[3]
*10 ui_in[4]
*11 ui_in[5]
*12 ui_in[6]
*13 ui_in[7]
*14 uio_in[0]
*15 uio_in[1]
*16 uio_in[2]
*17 uio_in[3]
*18 uio_in[4]
*19 uio_in[5]
*20 uio_in[6]
*21 uio_in[7]
*22 net7
*23 net8
*24 net9
*25 net10
*26 net11
*27 net12
*28 net13
*29 net14
*30 net15
*31 net16
*32 net17
*33 net18
*34 net19
*35 net20
*36 net21
*37 net22
*38 uo_out[0]
*39 uo_out[1]
*40 uo_out[2]
*41 uo_out[3]
*42 uo_out[4]
*43 uo_out[5]
*44 uo_out[6]
*45 uo_out[7]
*46 _000_
*47 _001_
*48 _002_
*49 _003_
*50 _004_
*51 _005_
*52 _006_
*53 _007_
*54 _008_
*55 _009_
*56 _010_
*57 _011_
*58 _012_
*59 _013_
*60 _014_
*61 _015_
*62 _016_
*63 _017_
*64 _018_
*65 _019_
*66 _020_
*67 _021_
*68 _022_
*69 _023_
*70 _024_
*71 _025_
*72 _026_
*73 _027_
*74 _028_
*75 _029_
*76 _030_
*77 _031_
*78 _032_
*79 _033_
*80 _034_
*81 _035_
*82 _036_
*83 _037_
*84 _038_
*85 _039_
*86 _040_
*87 _041_
*88 _042_
*89 _043_
*90 _044_
*91 _045_
*92 _046_
*93 _047_
*94 _048_
*95 _049_
*96 _050_
*97 _051_
*98 _052_
*99 _053_
*100 _054_
*101 _055_
*102 _056_
*103 _057_
*104 _058_
*105 _059_
*106 _060_
*107 _061_
*108 _062_
*109 _063_
*110 _064_
*111 _065_
*112 _066_
*113 _067_
*114 _068_
*115 _069_
*116 _070_
*117 _071_
*118 _072_
*119 _073_
*120 _074_
*121 _075_
*122 _076_
*123 _077_
*124 _078_
*125 _079_
*126 _080_
*127 _081_
*128 _082_
*129 _083_
*130 _084_
*131 _085_
*132 _086_
*133 _087_
*134 _088_
*135 _089_
*136 _090_
*137 _091_
*138 _092_
*139 _093_
*140 _094_
*141 _095_
*142 _096_
*143 _097_
*144 _098_
*145 _099_
*146 _100_
*147 _101_
*148 _102_
*149 _103_
*150 _104_
*151 _105_
*152 _106_
*153 _107_
*154 _108_
*155 _109_
*156 _110_
*157 _111_
*158 _112_
*159 _113_
*160 _114_
*161 _115_
*162 _116_
*163 _117_
*164 _118_
*165 _119_
*166 _120_
*167 _121_
*168 _122_
*169 _123_
*170 _124_
*171 _125_
*172 _126_
*173 _127_
*174 _128_
*175 _129_
*176 _130_
*177 _131_
*178 _132_
*179 _133_
*180 _134_
*181 _135_
*182 _136_
*183 _137_
*184 _138_
*185 _139_
*186 _140_
*187 _141_
*188 _142_
*189 _143_
*190 _144_
*191 _145_
*192 _146_
*193 _147_
*194 _148_
*195 _149_
*196 _150_
*197 _151_
*198 _152_
*199 _153_
*200 _154_
*201 _155_
*202 _156_
*203 _157_
*204 _158_
*205 _159_
*206 _160_
*207 _161_
*208 _162_
*209 _163_
*210 _164_
*211 _165_
*212 _166_
*213 _167_
*214 _168_
*215 _169_
*216 _170_
*217 _171_
*218 _172_
*219 _173_
*220 _174_
*221 _175_
*222 _176_
*223 _177_
*224 _178_
*225 _179_
*226 _180_
*227 _181_
*228 _182_
*229 _183_
*230 _184_
*231 _185_
*232 _186_
*233 _187_
*234 _188_
*235 _189_
*236 _190_
*237 _191_
*238 _192_
*239 _193_
*240 _194_
*241 _195_
*242 _196_
*243 _197_
*244 _198_
*245 _199_
*246 _200_
*247 _201_
*248 _202_
*249 _203_
*250 _204_
*251 _205_
*252 _206_
*253 _207_
*254 _208_
*255 _209_
*256 _210_
*257 clknet_0_clk
*258 clknet_4_0_0_clk
*259 clknet_4_10_0_clk
*260 clknet_4_11_0_clk
*261 clknet_4_12_0_clk
*262 clknet_4_13_0_clk
*263 clknet_4_14_0_clk
*264 clknet_4_15_0_clk
*265 clknet_4_1_0_clk
*266 clknet_4_2_0_clk
*267 clknet_4_3_0_clk
*268 clknet_4_4_0_clk
*269 clknet_4_5_0_clk
*270 clknet_4_6_0_clk
*271 clknet_4_7_0_clk
*272 clknet_4_8_0_clk
*273 clknet_4_9_0_clk
*274 net1
*275 net2
*276 net3
*277 net4
*278 net5
*279 net6
*280 tdc0\.o_result\[0\]
*281 tdc0\.o_result\[100\]
*282 tdc0\.o_result\[101\]
*283 tdc0\.o_result\[102\]
*284 tdc0\.o_result\[103\]
*285 tdc0\.o_result\[104\]
*286 tdc0\.o_result\[105\]
*287 tdc0\.o_result\[106\]
*288 tdc0\.o_result\[107\]
*289 tdc0\.o_result\[108\]
*290 tdc0\.o_result\[109\]
*291 tdc0\.o_result\[10\]
*292 tdc0\.o_result\[110\]
*293 tdc0\.o_result\[111\]
*294 tdc0\.o_result\[112\]
*295 tdc0\.o_result\[113\]
*296 tdc0\.o_result\[114\]
*297 tdc0\.o_result\[115\]
*298 tdc0\.o_result\[116\]
*299 tdc0\.o_result\[117\]
*300 tdc0\.o_result\[118\]
*301 tdc0\.o_result\[119\]
*302 tdc0\.o_result\[11\]
*303 tdc0\.o_result\[120\]
*304 tdc0\.o_result\[121\]
*305 tdc0\.o_result\[122\]
*306 tdc0\.o_result\[123\]
*307 tdc0\.o_result\[124\]
*308 tdc0\.o_result\[125\]
*309 tdc0\.o_result\[126\]
*310 tdc0\.o_result\[127\]
*311 tdc0\.o_result\[128\]
*312 tdc0\.o_result\[129\]
*313 tdc0\.o_result\[12\]
*314 tdc0\.o_result\[130\]
*315 tdc0\.o_result\[131\]
*316 tdc0\.o_result\[132\]
*317 tdc0\.o_result\[133\]
*318 tdc0\.o_result\[134\]
*319 tdc0\.o_result\[135\]
*320 tdc0\.o_result\[136\]
*321 tdc0\.o_result\[137\]
*322 tdc0\.o_result\[138\]
*323 tdc0\.o_result\[139\]
*324 tdc0\.o_result\[13\]
*325 tdc0\.o_result\[140\]
*326 tdc0\.o_result\[141\]
*327 tdc0\.o_result\[142\]
*328 tdc0\.o_result\[143\]
*329 tdc0\.o_result\[144\]
*330 tdc0\.o_result\[145\]
*331 tdc0\.o_result\[146\]
*332 tdc0\.o_result\[147\]
*333 tdc0\.o_result\[148\]
*334 tdc0\.o_result\[149\]
*335 tdc0\.o_result\[14\]
*336 tdc0\.o_result\[150\]
*337 tdc0\.o_result\[151\]
*338 tdc0\.o_result\[152\]
*339 tdc0\.o_result\[153\]
*340 tdc0\.o_result\[154\]
*341 tdc0\.o_result\[155\]
*342 tdc0\.o_result\[156\]
*343 tdc0\.o_result\[157\]
*344 tdc0\.o_result\[158\]
*345 tdc0\.o_result\[159\]
*346 tdc0\.o_result\[15\]
*347 tdc0\.o_result\[160\]
*348 tdc0\.o_result\[161\]
*349 tdc0\.o_result\[162\]
*350 tdc0\.o_result\[163\]
*351 tdc0\.o_result\[164\]
*352 tdc0\.o_result\[165\]
*353 tdc0\.o_result\[166\]
*354 tdc0\.o_result\[167\]
*355 tdc0\.o_result\[168\]
*356 tdc0\.o_result\[169\]
*357 tdc0\.o_result\[16\]
*358 tdc0\.o_result\[170\]
*359 tdc0\.o_result\[171\]
*360 tdc0\.o_result\[172\]
*361 tdc0\.o_result\[173\]
*362 tdc0\.o_result\[174\]
*363 tdc0\.o_result\[175\]
*364 tdc0\.o_result\[176\]
*365 tdc0\.o_result\[177\]
*366 tdc0\.o_result\[178\]
*367 tdc0\.o_result\[179\]
*368 tdc0\.o_result\[17\]
*369 tdc0\.o_result\[180\]
*370 tdc0\.o_result\[181\]
*371 tdc0\.o_result\[182\]
*372 tdc0\.o_result\[183\]
*373 tdc0\.o_result\[184\]
*374 tdc0\.o_result\[185\]
*375 tdc0\.o_result\[186\]
*376 tdc0\.o_result\[187\]
*377 tdc0\.o_result\[188\]
*378 tdc0\.o_result\[189\]
*379 tdc0\.o_result\[18\]
*380 tdc0\.o_result\[190\]
*381 tdc0\.o_result\[191\]
*382 tdc0\.o_result\[19\]
*383 tdc0\.o_result\[1\]
*384 tdc0\.o_result\[20\]
*385 tdc0\.o_result\[21\]
*386 tdc0\.o_result\[22\]
*387 tdc0\.o_result\[23\]
*388 tdc0\.o_result\[24\]
*389 tdc0\.o_result\[25\]
*390 tdc0\.o_result\[26\]
*391 tdc0\.o_result\[27\]
*392 tdc0\.o_result\[28\]
*393 tdc0\.o_result\[29\]
*394 tdc0\.o_result\[2\]
*395 tdc0\.o_result\[30\]
*396 tdc0\.o_result\[31\]
*397 tdc0\.o_result\[32\]
*398 tdc0\.o_result\[33\]
*399 tdc0\.o_result\[34\]
*400 tdc0\.o_result\[35\]
*401 tdc0\.o_result\[36\]
*402 tdc0\.o_result\[37\]
*403 tdc0\.o_result\[38\]
*404 tdc0\.o_result\[39\]
*405 tdc0\.o_result\[3\]
*406 tdc0\.o_result\[40\]
*407 tdc0\.o_result\[41\]
*408 tdc0\.o_result\[42\]
*409 tdc0\.o_result\[43\]
*410 tdc0\.o_result\[44\]
*411 tdc0\.o_result\[45\]
*412 tdc0\.o_result\[46\]
*413 tdc0\.o_result\[47\]
*414 tdc0\.o_result\[48\]
*415 tdc0\.o_result\[49\]
*416 tdc0\.o_result\[4\]
*417 tdc0\.o_result\[50\]
*418 tdc0\.o_result\[51\]
*419 tdc0\.o_result\[52\]
*420 tdc0\.o_result\[53\]
*421 tdc0\.o_result\[54\]
*422 tdc0\.o_result\[55\]
*423 tdc0\.o_result\[56\]
*424 tdc0\.o_result\[57\]
*425 tdc0\.o_result\[58\]
*426 tdc0\.o_result\[59\]
*427 tdc0\.o_result\[5\]
*428 tdc0\.o_result\[60\]
*429 tdc0\.o_result\[61\]
*430 tdc0\.o_result\[62\]
*431 tdc0\.o_result\[63\]
*432 tdc0\.o_result\[64\]
*433 tdc0\.o_result\[65\]
*434 tdc0\.o_result\[66\]
*435 tdc0\.o_result\[67\]
*436 tdc0\.o_result\[68\]
*437 tdc0\.o_result\[69\]
*438 tdc0\.o_result\[6\]
*439 tdc0\.o_result\[70\]
*440 tdc0\.o_result\[71\]
*441 tdc0\.o_result\[72\]
*442 tdc0\.o_result\[73\]
*443 tdc0\.o_result\[74\]
*444 tdc0\.o_result\[75\]
*445 tdc0\.o_result\[76\]
*446 tdc0\.o_result\[77\]
*447 tdc0\.o_result\[78\]
*448 tdc0\.o_result\[79\]
*449 tdc0\.o_result\[7\]
*450 tdc0\.o_result\[80\]
*451 tdc0\.o_result\[81\]
*452 tdc0\.o_result\[82\]
*453 tdc0\.o_result\[83\]
*454 tdc0\.o_result\[84\]
*455 tdc0\.o_result\[85\]
*456 tdc0\.o_result\[86\]
*457 tdc0\.o_result\[87\]
*458 tdc0\.o_result\[88\]
*459 tdc0\.o_result\[89\]
*460 tdc0\.o_result\[8\]
*461 tdc0\.o_result\[90\]
*462 tdc0\.o_result\[91\]
*463 tdc0\.o_result\[92\]
*464 tdc0\.o_result\[93\]
*465 tdc0\.o_result\[94\]
*466 tdc0\.o_result\[95\]
*467 tdc0\.o_result\[96\]
*468 tdc0\.o_result\[97\]
*469 tdc0\.o_result\[98\]
*470 tdc0\.o_result\[99\]
*471 tdc0\.o_result\[9\]
*472 tdc0\.w_dly_sig\[0\]
*473 tdc0\.w_dly_sig\[100\]
*474 tdc0\.w_dly_sig\[101\]
*475 tdc0\.w_dly_sig\[102\]
*476 tdc0\.w_dly_sig\[103\]
*477 tdc0\.w_dly_sig\[104\]
*478 tdc0\.w_dly_sig\[105\]
*479 tdc0\.w_dly_sig\[106\]
*480 tdc0\.w_dly_sig\[107\]
*481 tdc0\.w_dly_sig\[108\]
*482 tdc0\.w_dly_sig\[109\]
*483 tdc0\.w_dly_sig\[10\]
*484 tdc0\.w_dly_sig\[110\]
*485 tdc0\.w_dly_sig\[111\]
*486 tdc0\.w_dly_sig\[112\]
*487 tdc0\.w_dly_sig\[113\]
*488 tdc0\.w_dly_sig\[114\]
*489 tdc0\.w_dly_sig\[115\]
*490 tdc0\.w_dly_sig\[116\]
*491 tdc0\.w_dly_sig\[117\]
*492 tdc0\.w_dly_sig\[118\]
*493 tdc0\.w_dly_sig\[119\]
*494 tdc0\.w_dly_sig\[11\]
*495 tdc0\.w_dly_sig\[120\]
*496 tdc0\.w_dly_sig\[121\]
*497 tdc0\.w_dly_sig\[122\]
*498 tdc0\.w_dly_sig\[123\]
*499 tdc0\.w_dly_sig\[124\]
*500 tdc0\.w_dly_sig\[125\]
*501 tdc0\.w_dly_sig\[126\]
*502 tdc0\.w_dly_sig\[127\]
*503 tdc0\.w_dly_sig\[128\]
*504 tdc0\.w_dly_sig\[129\]
*505 tdc0\.w_dly_sig\[12\]
*506 tdc0\.w_dly_sig\[130\]
*507 tdc0\.w_dly_sig\[131\]
*508 tdc0\.w_dly_sig\[132\]
*509 tdc0\.w_dly_sig\[133\]
*510 tdc0\.w_dly_sig\[134\]
*511 tdc0\.w_dly_sig\[135\]
*512 tdc0\.w_dly_sig\[136\]
*513 tdc0\.w_dly_sig\[137\]
*514 tdc0\.w_dly_sig\[138\]
*515 tdc0\.w_dly_sig\[139\]
*516 tdc0\.w_dly_sig\[13\]
*517 tdc0\.w_dly_sig\[140\]
*518 tdc0\.w_dly_sig\[141\]
*519 tdc0\.w_dly_sig\[142\]
*520 tdc0\.w_dly_sig\[143\]
*521 tdc0\.w_dly_sig\[144\]
*522 tdc0\.w_dly_sig\[145\]
*523 tdc0\.w_dly_sig\[146\]
*524 tdc0\.w_dly_sig\[147\]
*525 tdc0\.w_dly_sig\[148\]
*526 tdc0\.w_dly_sig\[149\]
*527 tdc0\.w_dly_sig\[14\]
*528 tdc0\.w_dly_sig\[150\]
*529 tdc0\.w_dly_sig\[151\]
*530 tdc0\.w_dly_sig\[152\]
*531 tdc0\.w_dly_sig\[153\]
*532 tdc0\.w_dly_sig\[154\]
*533 tdc0\.w_dly_sig\[155\]
*534 tdc0\.w_dly_sig\[156\]
*535 tdc0\.w_dly_sig\[157\]
*536 tdc0\.w_dly_sig\[158\]
*537 tdc0\.w_dly_sig\[159\]
*538 tdc0\.w_dly_sig\[15\]
*539 tdc0\.w_dly_sig\[160\]
*540 tdc0\.w_dly_sig\[161\]
*541 tdc0\.w_dly_sig\[162\]
*542 tdc0\.w_dly_sig\[163\]
*543 tdc0\.w_dly_sig\[164\]
*544 tdc0\.w_dly_sig\[165\]
*545 tdc0\.w_dly_sig\[166\]
*546 tdc0\.w_dly_sig\[167\]
*547 tdc0\.w_dly_sig\[168\]
*548 tdc0\.w_dly_sig\[169\]
*549 tdc0\.w_dly_sig\[16\]
*550 tdc0\.w_dly_sig\[170\]
*551 tdc0\.w_dly_sig\[171\]
*552 tdc0\.w_dly_sig\[172\]
*553 tdc0\.w_dly_sig\[173\]
*554 tdc0\.w_dly_sig\[174\]
*555 tdc0\.w_dly_sig\[175\]
*556 tdc0\.w_dly_sig\[176\]
*557 tdc0\.w_dly_sig\[177\]
*558 tdc0\.w_dly_sig\[178\]
*559 tdc0\.w_dly_sig\[179\]
*560 tdc0\.w_dly_sig\[17\]
*561 tdc0\.w_dly_sig\[180\]
*562 tdc0\.w_dly_sig\[181\]
*563 tdc0\.w_dly_sig\[182\]
*564 tdc0\.w_dly_sig\[183\]
*565 tdc0\.w_dly_sig\[184\]
*566 tdc0\.w_dly_sig\[185\]
*567 tdc0\.w_dly_sig\[186\]
*568 tdc0\.w_dly_sig\[187\]
*569 tdc0\.w_dly_sig\[188\]
*570 tdc0\.w_dly_sig\[189\]
*571 tdc0\.w_dly_sig\[18\]
*572 tdc0\.w_dly_sig\[190\]
*573 tdc0\.w_dly_sig\[191\]
*574 tdc0\.w_dly_sig\[192\]
*575 tdc0\.w_dly_sig\[193\]
*576 tdc0\.w_dly_sig\[19\]
*577 tdc0\.w_dly_sig\[1\]
*578 tdc0\.w_dly_sig\[20\]
*579 tdc0\.w_dly_sig\[21\]
*580 tdc0\.w_dly_sig\[22\]
*581 tdc0\.w_dly_sig\[23\]
*582 tdc0\.w_dly_sig\[24\]
*583 tdc0\.w_dly_sig\[25\]
*584 tdc0\.w_dly_sig\[26\]
*585 tdc0\.w_dly_sig\[27\]
*586 tdc0\.w_dly_sig\[28\]
*587 tdc0\.w_dly_sig\[29\]
*588 tdc0\.w_dly_sig\[2\]
*589 tdc0\.w_dly_sig\[30\]
*590 tdc0\.w_dly_sig\[31\]
*591 tdc0\.w_dly_sig\[32\]
*592 tdc0\.w_dly_sig\[33\]
*593 tdc0\.w_dly_sig\[34\]
*594 tdc0\.w_dly_sig\[35\]
*595 tdc0\.w_dly_sig\[36\]
*596 tdc0\.w_dly_sig\[37\]
*597 tdc0\.w_dly_sig\[38\]
*598 tdc0\.w_dly_sig\[39\]
*599 tdc0\.w_dly_sig\[3\]
*600 tdc0\.w_dly_sig\[40\]
*601 tdc0\.w_dly_sig\[41\]
*602 tdc0\.w_dly_sig\[42\]
*603 tdc0\.w_dly_sig\[43\]
*604 tdc0\.w_dly_sig\[44\]
*605 tdc0\.w_dly_sig\[45\]
*606 tdc0\.w_dly_sig\[46\]
*607 tdc0\.w_dly_sig\[47\]
*608 tdc0\.w_dly_sig\[48\]
*609 tdc0\.w_dly_sig\[49\]
*610 tdc0\.w_dly_sig\[4\]
*611 tdc0\.w_dly_sig\[50\]
*612 tdc0\.w_dly_sig\[51\]
*613 tdc0\.w_dly_sig\[52\]
*614 tdc0\.w_dly_sig\[53\]
*615 tdc0\.w_dly_sig\[54\]
*616 tdc0\.w_dly_sig\[55\]
*617 tdc0\.w_dly_sig\[56\]
*618 tdc0\.w_dly_sig\[57\]
*619 tdc0\.w_dly_sig\[58\]
*620 tdc0\.w_dly_sig\[59\]
*621 tdc0\.w_dly_sig\[5\]
*622 tdc0\.w_dly_sig\[60\]
*623 tdc0\.w_dly_sig\[61\]
*624 tdc0\.w_dly_sig\[62\]
*625 tdc0\.w_dly_sig\[63\]
*626 tdc0\.w_dly_sig\[64\]
*627 tdc0\.w_dly_sig\[65\]
*628 tdc0\.w_dly_sig\[66\]
*629 tdc0\.w_dly_sig\[67\]
*630 tdc0\.w_dly_sig\[68\]
*631 tdc0\.w_dly_sig\[69\]
*632 tdc0\.w_dly_sig\[6\]
*633 tdc0\.w_dly_sig\[70\]
*634 tdc0\.w_dly_sig\[71\]
*635 tdc0\.w_dly_sig\[72\]
*636 tdc0\.w_dly_sig\[73\]
*637 tdc0\.w_dly_sig\[74\]
*638 tdc0\.w_dly_sig\[75\]
*639 tdc0\.w_dly_sig\[76\]
*640 tdc0\.w_dly_sig\[77\]
*641 tdc0\.w_dly_sig\[78\]
*642 tdc0\.w_dly_sig\[79\]
*643 tdc0\.w_dly_sig\[7\]
*644 tdc0\.w_dly_sig\[80\]
*645 tdc0\.w_dly_sig\[81\]
*646 tdc0\.w_dly_sig\[82\]
*647 tdc0\.w_dly_sig\[83\]
*648 tdc0\.w_dly_sig\[84\]
*649 tdc0\.w_dly_sig\[85\]
*650 tdc0\.w_dly_sig\[86\]
*651 tdc0\.w_dly_sig\[87\]
*652 tdc0\.w_dly_sig\[88\]
*653 tdc0\.w_dly_sig\[89\]
*654 tdc0\.w_dly_sig\[8\]
*655 tdc0\.w_dly_sig\[90\]
*656 tdc0\.w_dly_sig\[91\]
*657 tdc0\.w_dly_sig\[92\]
*658 tdc0\.w_dly_sig\[93\]
*659 tdc0\.w_dly_sig\[94\]
*660 tdc0\.w_dly_sig\[95\]
*661 tdc0\.w_dly_sig\[96\]
*662 tdc0\.w_dly_sig\[97\]
*663 tdc0\.w_dly_sig\[98\]
*664 tdc0\.w_dly_sig\[99\]
*665 tdc0\.w_dly_sig\[9\]
*666 tdc0\.w_dly_sig_n\[0\]
*667 tdc0\.w_dly_sig_n\[100\]
*668 tdc0\.w_dly_sig_n\[101\]
*669 tdc0\.w_dly_sig_n\[102\]
*670 tdc0\.w_dly_sig_n\[103\]
*671 tdc0\.w_dly_sig_n\[104\]
*672 tdc0\.w_dly_sig_n\[105\]
*673 tdc0\.w_dly_sig_n\[106\]
*674 tdc0\.w_dly_sig_n\[107\]
*675 tdc0\.w_dly_sig_n\[108\]
*676 tdc0\.w_dly_sig_n\[109\]
*677 tdc0\.w_dly_sig_n\[10\]
*678 tdc0\.w_dly_sig_n\[110\]
*679 tdc0\.w_dly_sig_n\[111\]
*680 tdc0\.w_dly_sig_n\[112\]
*681 tdc0\.w_dly_sig_n\[113\]
*682 tdc0\.w_dly_sig_n\[114\]
*683 tdc0\.w_dly_sig_n\[115\]
*684 tdc0\.w_dly_sig_n\[116\]
*685 tdc0\.w_dly_sig_n\[117\]
*686 tdc0\.w_dly_sig_n\[118\]
*687 tdc0\.w_dly_sig_n\[119\]
*688 tdc0\.w_dly_sig_n\[11\]
*689 tdc0\.w_dly_sig_n\[120\]
*690 tdc0\.w_dly_sig_n\[121\]
*691 tdc0\.w_dly_sig_n\[122\]
*692 tdc0\.w_dly_sig_n\[123\]
*693 tdc0\.w_dly_sig_n\[124\]
*694 tdc0\.w_dly_sig_n\[125\]
*695 tdc0\.w_dly_sig_n\[126\]
*696 tdc0\.w_dly_sig_n\[127\]
*697 tdc0\.w_dly_sig_n\[128\]
*698 tdc0\.w_dly_sig_n\[129\]
*699 tdc0\.w_dly_sig_n\[12\]
*700 tdc0\.w_dly_sig_n\[130\]
*701 tdc0\.w_dly_sig_n\[131\]
*702 tdc0\.w_dly_sig_n\[132\]
*703 tdc0\.w_dly_sig_n\[133\]
*704 tdc0\.w_dly_sig_n\[134\]
*705 tdc0\.w_dly_sig_n\[135\]
*706 tdc0\.w_dly_sig_n\[136\]
*707 tdc0\.w_dly_sig_n\[137\]
*708 tdc0\.w_dly_sig_n\[138\]
*709 tdc0\.w_dly_sig_n\[139\]
*710 tdc0\.w_dly_sig_n\[13\]
*711 tdc0\.w_dly_sig_n\[140\]
*712 tdc0\.w_dly_sig_n\[141\]
*713 tdc0\.w_dly_sig_n\[142\]
*714 tdc0\.w_dly_sig_n\[143\]
*715 tdc0\.w_dly_sig_n\[144\]
*716 tdc0\.w_dly_sig_n\[145\]
*717 tdc0\.w_dly_sig_n\[146\]
*718 tdc0\.w_dly_sig_n\[147\]
*719 tdc0\.w_dly_sig_n\[148\]
*720 tdc0\.w_dly_sig_n\[149\]
*721 tdc0\.w_dly_sig_n\[14\]
*722 tdc0\.w_dly_sig_n\[150\]
*723 tdc0\.w_dly_sig_n\[151\]
*724 tdc0\.w_dly_sig_n\[152\]
*725 tdc0\.w_dly_sig_n\[153\]
*726 tdc0\.w_dly_sig_n\[154\]
*727 tdc0\.w_dly_sig_n\[155\]
*728 tdc0\.w_dly_sig_n\[156\]
*729 tdc0\.w_dly_sig_n\[157\]
*730 tdc0\.w_dly_sig_n\[158\]
*731 tdc0\.w_dly_sig_n\[159\]
*732 tdc0\.w_dly_sig_n\[15\]
*733 tdc0\.w_dly_sig_n\[160\]
*734 tdc0\.w_dly_sig_n\[161\]
*735 tdc0\.w_dly_sig_n\[162\]
*736 tdc0\.w_dly_sig_n\[163\]
*737 tdc0\.w_dly_sig_n\[164\]
*738 tdc0\.w_dly_sig_n\[165\]
*739 tdc0\.w_dly_sig_n\[166\]
*740 tdc0\.w_dly_sig_n\[167\]
*741 tdc0\.w_dly_sig_n\[168\]
*742 tdc0\.w_dly_sig_n\[169\]
*743 tdc0\.w_dly_sig_n\[16\]
*744 tdc0\.w_dly_sig_n\[170\]
*745 tdc0\.w_dly_sig_n\[171\]
*746 tdc0\.w_dly_sig_n\[172\]
*747 tdc0\.w_dly_sig_n\[173\]
*748 tdc0\.w_dly_sig_n\[174\]
*749 tdc0\.w_dly_sig_n\[175\]
*750 tdc0\.w_dly_sig_n\[176\]
*751 tdc0\.w_dly_sig_n\[177\]
*752 tdc0\.w_dly_sig_n\[178\]
*753 tdc0\.w_dly_sig_n\[179\]
*754 tdc0\.w_dly_sig_n\[17\]
*755 tdc0\.w_dly_sig_n\[180\]
*756 tdc0\.w_dly_sig_n\[181\]
*757 tdc0\.w_dly_sig_n\[182\]
*758 tdc0\.w_dly_sig_n\[183\]
*759 tdc0\.w_dly_sig_n\[184\]
*760 tdc0\.w_dly_sig_n\[185\]
*761 tdc0\.w_dly_sig_n\[186\]
*762 tdc0\.w_dly_sig_n\[187\]
*763 tdc0\.w_dly_sig_n\[188\]
*764 tdc0\.w_dly_sig_n\[189\]
*765 tdc0\.w_dly_sig_n\[18\]
*766 tdc0\.w_dly_sig_n\[190\]
*767 tdc0\.w_dly_sig_n\[191\]
*768 tdc0\.w_dly_sig_n\[192\]
*769 tdc0\.w_dly_sig_n\[19\]
*770 tdc0\.w_dly_sig_n\[1\]
*771 tdc0\.w_dly_sig_n\[20\]
*772 tdc0\.w_dly_sig_n\[21\]
*773 tdc0\.w_dly_sig_n\[22\]
*774 tdc0\.w_dly_sig_n\[23\]
*775 tdc0\.w_dly_sig_n\[24\]
*776 tdc0\.w_dly_sig_n\[25\]
*777 tdc0\.w_dly_sig_n\[26\]
*778 tdc0\.w_dly_sig_n\[27\]
*779 tdc0\.w_dly_sig_n\[28\]
*780 tdc0\.w_dly_sig_n\[29\]
*781 tdc0\.w_dly_sig_n\[2\]
*782 tdc0\.w_dly_sig_n\[30\]
*783 tdc0\.w_dly_sig_n\[31\]
*784 tdc0\.w_dly_sig_n\[32\]
*785 tdc0\.w_dly_sig_n\[33\]
*786 tdc0\.w_dly_sig_n\[34\]
*787 tdc0\.w_dly_sig_n\[35\]
*788 tdc0\.w_dly_sig_n\[36\]
*789 tdc0\.w_dly_sig_n\[37\]
*790 tdc0\.w_dly_sig_n\[38\]
*791 tdc0\.w_dly_sig_n\[39\]
*792 tdc0\.w_dly_sig_n\[3\]
*793 tdc0\.w_dly_sig_n\[40\]
*794 tdc0\.w_dly_sig_n\[41\]
*795 tdc0\.w_dly_sig_n\[42\]
*796 tdc0\.w_dly_sig_n\[43\]
*797 tdc0\.w_dly_sig_n\[44\]
*798 tdc0\.w_dly_sig_n\[45\]
*799 tdc0\.w_dly_sig_n\[46\]
*800 tdc0\.w_dly_sig_n\[47\]
*801 tdc0\.w_dly_sig_n\[48\]
*802 tdc0\.w_dly_sig_n\[49\]
*803 tdc0\.w_dly_sig_n\[4\]
*804 tdc0\.w_dly_sig_n\[50\]
*805 tdc0\.w_dly_sig_n\[51\]
*806 tdc0\.w_dly_sig_n\[52\]
*807 tdc0\.w_dly_sig_n\[53\]
*808 tdc0\.w_dly_sig_n\[54\]
*809 tdc0\.w_dly_sig_n\[55\]
*810 tdc0\.w_dly_sig_n\[56\]
*811 tdc0\.w_dly_sig_n\[57\]
*812 tdc0\.w_dly_sig_n\[58\]
*813 tdc0\.w_dly_sig_n\[59\]
*814 tdc0\.w_dly_sig_n\[5\]
*815 tdc0\.w_dly_sig_n\[60\]
*816 tdc0\.w_dly_sig_n\[61\]
*817 tdc0\.w_dly_sig_n\[62\]
*818 tdc0\.w_dly_sig_n\[63\]
*819 tdc0\.w_dly_sig_n\[64\]
*820 tdc0\.w_dly_sig_n\[65\]
*821 tdc0\.w_dly_sig_n\[66\]
*822 tdc0\.w_dly_sig_n\[67\]
*823 tdc0\.w_dly_sig_n\[68\]
*824 tdc0\.w_dly_sig_n\[69\]
*825 tdc0\.w_dly_sig_n\[6\]
*826 tdc0\.w_dly_sig_n\[70\]
*827 tdc0\.w_dly_sig_n\[71\]
*828 tdc0\.w_dly_sig_n\[72\]
*829 tdc0\.w_dly_sig_n\[73\]
*830 tdc0\.w_dly_sig_n\[74\]
*831 tdc0\.w_dly_sig_n\[75\]
*832 tdc0\.w_dly_sig_n\[76\]
*833 tdc0\.w_dly_sig_n\[77\]
*834 tdc0\.w_dly_sig_n\[78\]
*835 tdc0\.w_dly_sig_n\[79\]
*836 tdc0\.w_dly_sig_n\[7\]
*837 tdc0\.w_dly_sig_n\[80\]
*838 tdc0\.w_dly_sig_n\[81\]
*839 tdc0\.w_dly_sig_n\[82\]
*840 tdc0\.w_dly_sig_n\[83\]
*841 tdc0\.w_dly_sig_n\[84\]
*842 tdc0\.w_dly_sig_n\[85\]
*843 tdc0\.w_dly_sig_n\[86\]
*844 tdc0\.w_dly_sig_n\[87\]
*845 tdc0\.w_dly_sig_n\[88\]
*846 tdc0\.w_dly_sig_n\[89\]
*847 tdc0\.w_dly_sig_n\[8\]
*848 tdc0\.w_dly_sig_n\[90\]
*849 tdc0\.w_dly_sig_n\[91\]
*850 tdc0\.w_dly_sig_n\[92\]
*851 tdc0\.w_dly_sig_n\[93\]
*852 tdc0\.w_dly_sig_n\[94\]
*853 tdc0\.w_dly_sig_n\[95\]
*854 tdc0\.w_dly_sig_n\[96\]
*855 tdc0\.w_dly_sig_n\[97\]
*856 tdc0\.w_dly_sig_n\[98\]
*857 tdc0\.w_dly_sig_n\[99\]
*858 tdc0\.w_dly_sig_n\[9\]
*859 FILLER_0_0_109
*860 FILLER_0_0_113
*861 FILLER_0_0_125
*862 FILLER_0_0_137
*863 FILLER_0_0_141
*864 FILLER_0_0_15
*865 FILLER_0_0_153
*866 FILLER_0_0_165
*867 FILLER_0_0_169
*868 FILLER_0_0_181
*869 FILLER_0_0_193
*870 FILLER_0_0_197
*871 FILLER_0_0_209
*872 FILLER_0_0_221
*873 FILLER_0_0_225
*874 FILLER_0_0_237
*875 FILLER_0_0_249
*876 FILLER_0_0_253
*877 FILLER_0_0_265
*878 FILLER_0_0_27
*879 FILLER_0_0_277
*880 FILLER_0_0_281
*881 FILLER_0_0_29
*882 FILLER_0_0_293
*883 FILLER_0_0_3
*884 FILLER_0_0_305
*885 FILLER_0_0_309
*886 FILLER_0_0_321
*887 FILLER_0_0_333
*888 FILLER_0_0_41
*889 FILLER_0_0_53
*890 FILLER_0_0_57
*891 FILLER_0_0_69
*892 FILLER_0_0_81
*893 FILLER_0_0_85
*894 FILLER_0_0_97
*895 FILLER_0_10_103
*896 FILLER_0_10_115
*897 FILLER_0_10_127
*898 FILLER_0_10_139
*899 FILLER_0_10_141
*900 FILLER_0_10_15
*901 FILLER_0_10_151
*902 FILLER_0_10_169
*903 FILLER_0_10_175
*904 FILLER_0_10_195
*905 FILLER_0_10_197
*906 FILLER_0_10_205
*907 FILLER_0_10_223
*908 FILLER_0_10_240
*909 FILLER_0_10_249
*910 FILLER_0_10_253
*911 FILLER_0_10_259
*912 FILLER_0_10_27
*913 FILLER_0_10_271
*914 FILLER_0_10_282
*915 FILLER_0_10_29
*916 FILLER_0_10_295
*917 FILLER_0_10_3
*918 FILLER_0_10_307
*919 FILLER_0_10_309
*920 FILLER_0_10_321
*921 FILLER_0_10_333
*922 FILLER_0_10_41
*923 FILLER_0_10_53
*924 FILLER_0_10_65
*925 FILLER_0_10_73
*926 FILLER_0_10_91
*927 FILLER_0_11_113
*928 FILLER_0_11_125
*929 FILLER_0_11_132
*930 FILLER_0_11_143
*931 FILLER_0_11_15
*932 FILLER_0_11_162
*933 FILLER_0_11_178
*934 FILLER_0_11_187
*935 FILLER_0_11_203
*936 FILLER_0_11_209
*937 FILLER_0_11_215
*938 FILLER_0_11_239
*939 FILLER_0_11_27
*940 FILLER_0_11_274
*941 FILLER_0_11_281
*942 FILLER_0_11_289
*943 FILLER_0_11_3
*944 FILLER_0_11_306
*945 FILLER_0_11_318
*946 FILLER_0_11_330
*947 FILLER_0_11_334
*948 FILLER_0_11_39
*949 FILLER_0_11_51
*950 FILLER_0_11_55
*951 FILLER_0_11_57
*952 FILLER_0_11_65
*953 FILLER_0_12_101
*954 FILLER_0_12_107
*955 FILLER_0_12_115
*956 FILLER_0_12_133
*957 FILLER_0_12_139
*958 FILLER_0_12_15
*959 FILLER_0_12_157
*960 FILLER_0_12_169
*961 FILLER_0_12_173
*962 FILLER_0_12_189
*963 FILLER_0_12_195
*964 FILLER_0_12_211
*965 FILLER_0_12_215
*966 FILLER_0_12_221
*967 FILLER_0_12_229
*968 FILLER_0_12_240
*969 FILLER_0_12_258
*970 FILLER_0_12_265
*971 FILLER_0_12_27
*972 FILLER_0_12_276
*973 FILLER_0_12_287
*974 FILLER_0_12_29
*975 FILLER_0_12_3
*976 FILLER_0_12_300
*977 FILLER_0_12_325
*978 FILLER_0_12_333
*979 FILLER_0_12_41
*980 FILLER_0_12_50
*981 FILLER_0_12_67
*982 FILLER_0_12_85
*983 FILLER_0_12_97
*984 FILLER_0_13_113
*985 FILLER_0_13_131
*986 FILLER_0_13_137
*987 FILLER_0_13_149
*988 FILLER_0_13_15
*989 FILLER_0_13_155
*990 FILLER_0_13_166
*991 FILLER_0_13_189
*992 FILLER_0_13_198
*993 FILLER_0_13_206
*994 FILLER_0_13_214
*995 FILLER_0_13_220
*996 FILLER_0_13_231
*997 FILLER_0_13_242
*998 FILLER_0_13_246
*999 FILLER_0_13_263
*1000 FILLER_0_13_27
*1001 FILLER_0_13_281
*1002 FILLER_0_13_3
*1003 FILLER_0_13_310
*1004 FILLER_0_13_314
*1005 FILLER_0_13_332
*1006 FILLER_0_13_35
*1007 FILLER_0_13_57
*1008 FILLER_0_13_70
*1009 FILLER_0_13_92
*1010 FILLER_0_14_108
*1011 FILLER_0_14_116
*1012 FILLER_0_14_122
*1013 FILLER_0_14_141
*1014 FILLER_0_14_15
*1015 FILLER_0_14_158
*1016 FILLER_0_14_171
*1017 FILLER_0_14_182
*1018 FILLER_0_14_197
*1019 FILLER_0_14_208
*1020 FILLER_0_14_214
*1021 FILLER_0_14_225
*1022 FILLER_0_14_245
*1023 FILLER_0_14_251
*1024 FILLER_0_14_253
*1025 FILLER_0_14_265
*1026 FILLER_0_14_27
*1027 FILLER_0_14_273
*1028 FILLER_0_14_285
*1029 FILLER_0_14_3
*1030 FILLER_0_14_300
*1031 FILLER_0_14_307
*1032 FILLER_0_14_324
*1033 FILLER_0_14_332
*1034 FILLER_0_14_48
*1035 FILLER_0_14_75
*1036 FILLER_0_14_79
*1037 FILLER_0_14_83
*1038 FILLER_0_14_88
*1039 FILLER_0_14_95
*1040 FILLER_0_15_111
*1041 FILLER_0_15_118
*1042 FILLER_0_15_138
*1043 FILLER_0_15_15
*1044 FILLER_0_15_163
*1045 FILLER_0_15_167
*1046 FILLER_0_15_190
*1047 FILLER_0_15_207
*1048 FILLER_0_15_266
*1049 FILLER_0_15_297
*1050 FILLER_0_15_3
*1051 FILLER_0_15_309
*1052 FILLER_0_15_313
*1053 FILLER_0_15_35
*1054 FILLER_0_15_54
*1055 FILLER_0_15_57
*1056 FILLER_0_15_65
*1057 FILLER_0_15_83
*1058 FILLER_0_15_92
*1059 FILLER_0_16_109
*1060 FILLER_0_16_120
*1061 FILLER_0_16_126
*1062 FILLER_0_16_138
*1063 FILLER_0_16_164
*1064 FILLER_0_16_176
*1065 FILLER_0_16_185
*1066 FILLER_0_16_191
*1067 FILLER_0_16_195
*1068 FILLER_0_16_197
*1069 FILLER_0_16_22
*1070 FILLER_0_16_223
*1071 FILLER_0_16_237
*1072 FILLER_0_16_249
*1073 FILLER_0_16_253
*1074 FILLER_0_16_29
*1075 FILLER_0_16_3
*1076 FILLER_0_16_300
*1077 FILLER_0_16_309
*1078 FILLER_0_16_333
*1079 FILLER_0_16_50
*1080 FILLER_0_16_67
*1081 FILLER_0_16_79
*1082 FILLER_0_16_83
*1083 FILLER_0_16_96
*1084 FILLER_0_17_105
*1085 FILLER_0_17_111
*1086 FILLER_0_17_113
*1087 FILLER_0_17_131
*1088 FILLER_0_17_135
*1089 FILLER_0_17_148
*1090 FILLER_0_17_15
*1091 FILLER_0_17_169
*1092 FILLER_0_17_174
*1093 FILLER_0_17_199
*1094 FILLER_0_17_207
*1095 FILLER_0_17_22
*1096 FILLER_0_17_225
*1097 FILLER_0_17_245
*1098 FILLER_0_17_251
*1099 FILLER_0_17_267
*1100 FILLER_0_17_279
*1101 FILLER_0_17_3
*1102 FILLER_0_17_31
*1103 FILLER_0_17_312
*1104 FILLER_0_17_330
*1105 FILLER_0_17_334
*1106 FILLER_0_17_38
*1107 FILLER_0_17_46
*1108 FILLER_0_17_57
*1109 FILLER_0_17_69
*1110 FILLER_0_17_93
*1111 FILLER_0_18_116
*1112 FILLER_0_18_124
*1113 FILLER_0_18_134
*1114 FILLER_0_18_141
*1115 FILLER_0_18_161
*1116 FILLER_0_18_167
*1117 FILLER_0_18_171
*1118 FILLER_0_18_177
*1119 FILLER_0_18_189
*1120 FILLER_0_18_195
*1121 FILLER_0_18_20
*1122 FILLER_0_18_238
*1123 FILLER_0_18_246
*1124 FILLER_0_18_251
*1125 FILLER_0_18_268
*1126 FILLER_0_18_27
*1127 FILLER_0_18_3
*1128 FILLER_0_18_304
*1129 FILLER_0_18_309
*1130 FILLER_0_18_317
*1131 FILLER_0_18_334
*1132 FILLER_0_18_35
*1133 FILLER_0_18_39
*1134 FILLER_0_18_7
*1135 FILLER_0_18_83
*1136 FILLER_0_19_104
*1137 FILLER_0_19_110
*1138 FILLER_0_19_129
*1139 FILLER_0_19_144
*1140 FILLER_0_19_156
*1141 FILLER_0_19_166
*1142 FILLER_0_19_169
*1143 FILLER_0_19_177
*1144 FILLER_0_19_195
*1145 FILLER_0_19_207
*1146 FILLER_0_19_217
*1147 FILLER_0_19_223
*1148 FILLER_0_19_23
*1149 FILLER_0_19_239
*1150 FILLER_0_19_251
*1151 FILLER_0_19_255
*1152 FILLER_0_19_267
*1153 FILLER_0_19_271
*1154 FILLER_0_19_279
*1155 FILLER_0_19_281
*1156 FILLER_0_19_3
*1157 FILLER_0_19_334
*1158 FILLER_0_19_41
*1159 FILLER_0_19_53
*1160 FILLER_0_19_7
*1161 FILLER_0_19_73
*1162 FILLER_0_19_79
*1163 FILLER_0_19_98
*1164 FILLER_0_1_105
*1165 FILLER_0_1_111
*1166 FILLER_0_1_113
*1167 FILLER_0_1_125
*1168 FILLER_0_1_137
*1169 FILLER_0_1_149
*1170 FILLER_0_1_15
*1171 FILLER_0_1_161
*1172 FILLER_0_1_167
*1173 FILLER_0_1_169
*1174 FILLER_0_1_181
*1175 FILLER_0_1_193
*1176 FILLER_0_1_205
*1177 FILLER_0_1_217
*1178 FILLER_0_1_223
*1179 FILLER_0_1_225
*1180 FILLER_0_1_237
*1181 FILLER_0_1_249
*1182 FILLER_0_1_261
*1183 FILLER_0_1_27
*1184 FILLER_0_1_273
*1185 FILLER_0_1_279
*1186 FILLER_0_1_281
*1187 FILLER_0_1_293
*1188 FILLER_0_1_3
*1189 FILLER_0_1_305
*1190 FILLER_0_1_317
*1191 FILLER_0_1_329
*1192 FILLER_0_1_39
*1193 FILLER_0_1_51
*1194 FILLER_0_1_55
*1195 FILLER_0_1_57
*1196 FILLER_0_1_69
*1197 FILLER_0_1_81
*1198 FILLER_0_1_93
*1199 FILLER_0_20_103
*1200 FILLER_0_20_115
*1201 FILLER_0_20_121
*1202 FILLER_0_20_130
*1203 FILLER_0_20_138
*1204 FILLER_0_20_152
*1205 FILLER_0_20_169
*1206 FILLER_0_20_173
*1207 FILLER_0_20_190
*1208 FILLER_0_20_221
*1209 FILLER_0_20_234
*1210 FILLER_0_20_242
*1211 FILLER_0_20_285
*1212 FILLER_0_20_29
*1213 FILLER_0_20_3
*1214 FILLER_0_20_321
*1215 FILLER_0_20_333
*1216 FILLER_0_20_59
*1217 FILLER_0_20_63
*1218 FILLER_0_20_80
*1219 FILLER_0_20_85
*1220 FILLER_0_20_96
*1221 FILLER_0_21_110
*1222 FILLER_0_21_116
*1223 FILLER_0_21_140
*1224 FILLER_0_21_146
*1225 FILLER_0_21_16
*1226 FILLER_0_21_169
*1227 FILLER_0_21_195
*1228 FILLER_0_21_216
*1229 FILLER_0_21_236
*1230 FILLER_0_21_242
*1231 FILLER_0_21_255
*1232 FILLER_0_21_277
*1233 FILLER_0_21_297
*1234 FILLER_0_21_3
*1235 FILLER_0_21_305
*1236 FILLER_0_21_317
*1237 FILLER_0_21_34
*1238 FILLER_0_21_55
*1239 FILLER_0_21_73
*1240 FILLER_0_21_79
*1241 FILLER_0_21_96
*1242 FILLER_0_22_100
*1243 FILLER_0_22_123
*1244 FILLER_0_22_135
*1245 FILLER_0_22_139
*1246 FILLER_0_22_141
*1247 FILLER_0_22_154
*1248 FILLER_0_22_162
*1249 FILLER_0_22_170
*1250 FILLER_0_22_181
*1251 FILLER_0_22_21
*1252 FILLER_0_22_218
*1253 FILLER_0_22_235
*1254 FILLER_0_22_256
*1255 FILLER_0_22_264
*1256 FILLER_0_22_27
*1257 FILLER_0_22_284
*1258 FILLER_0_22_29
*1259 FILLER_0_22_3
*1260 FILLER_0_22_304
*1261 FILLER_0_22_312
*1262 FILLER_0_22_334
*1263 FILLER_0_22_37
*1264 FILLER_0_22_64
*1265 FILLER_0_22_82
*1266 FILLER_0_22_85
*1267 FILLER_0_23_100
*1268 FILLER_0_23_106
*1269 FILLER_0_23_122
*1270 FILLER_0_23_149
*1271 FILLER_0_23_166
*1272 FILLER_0_23_169
*1273 FILLER_0_23_17
*1274 FILLER_0_23_207
*1275 FILLER_0_23_215
*1276 FILLER_0_23_236
*1277 FILLER_0_23_244
*1278 FILLER_0_23_25
*1279 FILLER_0_23_255
*1280 FILLER_0_23_264
*1281 FILLER_0_23_272
*1282 FILLER_0_23_279
*1283 FILLER_0_23_281
*1284 FILLER_0_23_285
*1285 FILLER_0_23_3
*1286 FILLER_0_23_302
*1287 FILLER_0_23_314
*1288 FILLER_0_23_334
*1289 FILLER_0_23_45
*1290 FILLER_0_23_52
*1291 FILLER_0_23_57
*1292 FILLER_0_23_65
*1293 FILLER_0_23_7
*1294 FILLER_0_24_105
*1295 FILLER_0_24_113
*1296 FILLER_0_24_126
*1297 FILLER_0_24_132
*1298 FILLER_0_24_141
*1299 FILLER_0_24_149
*1300 FILLER_0_24_155
*1301 FILLER_0_24_173
*1302 FILLER_0_24_179
*1303 FILLER_0_24_187
*1304 FILLER_0_24_194
*1305 FILLER_0_24_202
*1306 FILLER_0_24_210
*1307 FILLER_0_24_228
*1308 FILLER_0_24_241
*1309 FILLER_0_24_245
*1310 FILLER_0_24_249
*1311 FILLER_0_24_253
*1312 FILLER_0_24_264
*1313 FILLER_0_24_274
*1314 FILLER_0_24_280
*1315 FILLER_0_24_3
*1316 FILLER_0_24_309
*1317 FILLER_0_24_313
*1318 FILLER_0_24_329
*1319 FILLER_0_24_38
*1320 FILLER_0_24_42
*1321 FILLER_0_24_63
*1322 FILLER_0_24_77
*1323 FILLER_0_24_83
*1324 FILLER_0_24_85
*1325 FILLER_0_24_9
*1326 FILLER_0_25_109
*1327 FILLER_0_25_113
*1328 FILLER_0_25_135
*1329 FILLER_0_25_149
*1330 FILLER_0_25_164
*1331 FILLER_0_25_169
*1332 FILLER_0_25_177
*1333 FILLER_0_25_183
*1334 FILLER_0_25_193
*1335 FILLER_0_25_20
*1336 FILLER_0_25_203
*1337 FILLER_0_25_215
*1338 FILLER_0_25_223
*1339 FILLER_0_25_225
*1340 FILLER_0_25_237
*1341 FILLER_0_25_241
*1342 FILLER_0_25_254
*1343 FILLER_0_25_276
*1344 FILLER_0_25_28
*1345 FILLER_0_25_281
*1346 FILLER_0_25_3
*1347 FILLER_0_25_300
*1348 FILLER_0_25_312