*SPEF "ieee 1481-1999"
*DESIGN "tt_um_hpretl_tt06_tdc"
*DATE "11:11:11 Fri 11 11, 1111"
*VENDOR "OpenRCX"
*PROGRAM "Parallel Extraction"
*VERSION "1.0"
*DESIGN_FLOW "NAME_SCOPE LOCAL" "PIN_CAP NONE"
*DIVIDER /
*DELIMITER :
*BUS_DELIMITER []
*T_UNIT 1 NS
*C_UNIT 1 PF
*R_UNIT 1 OHM
*L_UNIT 1 HENRY

*NAME_MAP
*3 clk
*4 ena
*5 rst_n
*6 ui_in[0]
*7 ui_in[1]
*8 ui_in[2]
*9 ui_in[3]
*10 ui_in[4]
*11 ui_in[5]
*12 ui_in[6]
*13 ui_in[7]
*14 uio_in[0]
*15 uio_in[1]
*16 uio_in[2]
*17 uio_in[3]
*18 uio_in[4]
*19 uio_in[5]
*20 uio_in[6]
*21 uio_in[7]
*22 net7
*23 net8
*24 net9
*25 net10
*26 net11
*27 net12
*28 net13
*29 net14
*30 net15
*31 net16
*32 net17
*33 net18
*34 net19
*35 net20
*36 net21
*37 net22
*38 uo_out[0]
*39 uo_out[1]
*40 uo_out[2]
*41 uo_out[3]
*42 uo_out[4]
*43 uo_out[5]
*44 uo_out[6]
*45 uo_out[7]
*46 _000_
*47 _001_
*48 _002_
*49 _003_
*50 _004_
*51 _005_
*52 _006_
*53 _007_
*54 _008_
*55 _009_
*56 _010_
*57 _011_
*58 _012_
*59 _013_
*60 _014_
*61 _015_
*62 _016_
*63 _017_
*64 _018_
*65 _019_
*66 _020_
*67 _021_
*68 _022_
*69 _023_
*70 _024_
*71 _025_
*72 _026_
*73 _027_
*74 _028_
*75 _029_
*76 _030_
*77 _031_
*78 _032_
*79 _033_
*80 _034_
*81 _035_
*82 _036_
*83 _037_
*84 _038_
*85 _039_
*86 _040_
*87 _041_
*88 _042_
*89 _043_
*90 _044_
*91 _045_
*92 _046_
*93 _047_
*94 _048_
*95 _049_
*96 _050_
*97 _051_
*98 _052_
*99 _053_
*100 _054_
*101 _055_
*102 _056_
*103 _057_
*104 _058_
*105 _059_
*106 _060_
*107 _061_
*108 _062_
*109 _063_
*110 _064_
*111 _065_
*112 _066_
*113 _067_
*114 _068_
*115 _069_
*116 _070_
*117 _071_
*118 _072_
*119 _073_
*120 _074_
*121 _075_
*122 _076_
*123 _077_
*124 _078_
*125 _079_
*126 _080_
*127 _081_
*128 _082_
*129 _083_
*130 _084_
*131 _085_
*132 _086_
*133 _087_
*134 _088_
*135 _089_
*136 _090_
*137 _091_
*138 _092_
*139 _093_
*140 _094_
*141 _095_
*142 _096_
*143 _097_
*144 _098_
*145 _099_
*146 _100_
*147 _101_
*148 _102_
*149 _103_
*150 _104_
*151 _105_
*152 _106_
*153 _107_
*154 _108_
*155 _109_
*156 _110_
*157 _111_
*158 _112_
*159 _113_
*160 _114_
*161 _115_
*162 _116_
*163 _117_
*164 _118_
*165 _119_
*166 _120_
*167 _121_
*168 _122_
*169 _123_
*170 _124_
*171 _125_
*172 _126_
*173 _127_
*174 _128_
*175 _129_
*176 _130_
*177 _131_
*178 _132_
*179 _133_
*180 _134_
*181 _135_
*182 _136_
*183 _137_
*184 _138_
*185 _139_
*186 _140_
*187 _141_
*188 _142_
*189 _143_
*190 _144_
*191 _145_
*192 _146_
*193 _147_
*194 _148_
*195 _149_
*196 _150_
*197 _151_
*198 _152_
*199 _153_
*200 _154_
*201 _155_
*202 _156_
*203 _157_
*204 _158_
*205 _159_
*206 _160_
*207 _161_
*208 _162_
*209 _163_
*210 _164_
*211 _165_
*212 _166_
*213 _167_
*214 _168_
*215 _169_
*216 _170_
*217 _171_
*218 _172_
*219 _173_
*220 _174_
*221 _175_
*222 _176_
*223 _177_
*224 _178_
*225 _179_
*226 _180_
*227 _181_
*228 _182_
*229 _183_
*230 _184_
*231 _185_
*232 _186_
*233 _187_
*234 _188_
*235 _189_
*236 _190_
*237 _191_
*238 _192_
*239 _193_
*240 _194_
*241 _195_
*242 _196_
*243 _197_
*244 _198_
*245 _199_
*246 _200_
*247 _201_
*248 _202_
*249 _203_
*250 _204_
*251 _205_
*252 _206_
*253 _207_
*254 _208_
*255 _209_
*256 _210_
*257 clknet_0_clk
*258 clknet_4_0_0_clk
*259 clknet_4_10_0_clk
*260 clknet_4_11_0_clk
*261 clknet_4_12_0_clk
*262 clknet_4_13_0_clk
*263 clknet_4_14_0_clk
*264 clknet_4_15_0_clk
*265 clknet_4_1_0_clk
*266 clknet_4_2_0_clk
*267 clknet_4_3_0_clk
*268 clknet_4_4_0_clk
*269 clknet_4_5_0_clk
*270 clknet_4_6_0_clk
*271 clknet_4_7_0_clk
*272 clknet_4_8_0_clk
*273 clknet_4_9_0_clk
*274 net1
*275 net2
*276 net23
*277 net24
*278 net25
*279 net3
*280 net4
*281 net5
*282 net6
*283 tdc0\.o_result\[0\]
*284 tdc0\.o_result\[100\]
*285 tdc0\.o_result\[101\]
*286 tdc0\.o_result\[102\]
*287 tdc0\.o_result\[103\]
*288 tdc0\.o_result\[104\]
*289 tdc0\.o_result\[105\]
*290 tdc0\.o_result\[106\]
*291 tdc0\.o_result\[107\]
*292 tdc0\.o_result\[108\]
*293 tdc0\.o_result\[109\]
*294 tdc0\.o_result\[10\]
*295 tdc0\.o_result\[110\]
*296 tdc0\.o_result\[111\]
*297 tdc0\.o_result\[112\]
*298 tdc0\.o_result\[113\]
*299 tdc0\.o_result\[114\]
*300 tdc0\.o_result\[115\]
*301 tdc0\.o_result\[116\]
*302 tdc0\.o_result\[117\]
*303 tdc0\.o_result\[118\]
*304 tdc0\.o_result\[119\]
*305 tdc0\.o_result\[11\]
*306 tdc0\.o_result\[120\]
*307 tdc0\.o_result\[121\]
*308 tdc0\.o_result\[122\]
*309 tdc0\.o_result\[123\]
*310 tdc0\.o_result\[124\]
*311 tdc0\.o_result\[125\]
*312 tdc0\.o_result\[126\]
*313 tdc0\.o_result\[127\]
*314 tdc0\.o_result\[128\]
*315 tdc0\.o_result\[129\]
*316 tdc0\.o_result\[12\]
*317 tdc0\.o_result\[130\]
*318 tdc0\.o_result\[131\]
*319 tdc0\.o_result\[132\]
*320 tdc0\.o_result\[133\]
*321 tdc0\.o_result\[134\]
*322 tdc0\.o_result\[135\]
*323 tdc0\.o_result\[136\]
*324 tdc0\.o_result\[137\]
*325 tdc0\.o_result\[138\]
*326 tdc0\.o_result\[139\]
*327 tdc0\.o_result\[13\]
*328 tdc0\.o_result\[140\]
*329 tdc0\.o_result\[141\]
*330 tdc0\.o_result\[142\]
*331 tdc0\.o_result\[143\]
*332 tdc0\.o_result\[144\]
*333 tdc0\.o_result\[145\]
*334 tdc0\.o_result\[146\]
*335 tdc0\.o_result\[147\]
*336 tdc0\.o_result\[148\]
*337 tdc0\.o_result\[149\]
*338 tdc0\.o_result\[14\]
*339 tdc0\.o_result\[150\]
*340 tdc0\.o_result\[151\]
*341 tdc0\.o_result\[152\]
*342 tdc0\.o_result\[153\]
*343 tdc0\.o_result\[154\]
*344 tdc0\.o_result\[155\]
*345 tdc0\.o_result\[156\]
*346 tdc0\.o_result\[157\]
*347 tdc0\.o_result\[158\]
*348 tdc0\.o_result\[159\]
*349 tdc0\.o_result\[15\]
*350 tdc0\.o_result\[160\]
*351 tdc0\.o_result\[161\]
*352 tdc0\.o_result\[162\]
*353 tdc0\.o_result\[163\]
*354 tdc0\.o_result\[164\]
*355 tdc0\.o_result\[165\]
*356 tdc0\.o_result\[166\]
*357 tdc0\.o_result\[167\]
*358 tdc0\.o_result\[168\]
*359 tdc0\.o_result\[169\]
*360 tdc0\.o_result\[16\]
*361 tdc0\.o_result\[170\]
*362 tdc0\.o_result\[171\]
*363 tdc0\.o_result\[172\]
*364 tdc0\.o_result\[173\]
*365 tdc0\.o_result\[174\]
*366 tdc0\.o_result\[175\]
*367 tdc0\.o_result\[176\]
*368 tdc0\.o_result\[177\]
*369 tdc0\.o_result\[178\]
*370 tdc0\.o_result\[179\]
*371 tdc0\.o_result\[17\]
*372 tdc0\.o_result\[180\]
*373 tdc0\.o_result\[181\]
*374 tdc0\.o_result\[182\]
*375 tdc0\.o_result\[183\]
*376 tdc0\.o_result\[184\]
*377 tdc0\.o_result\[185\]
*378 tdc0\.o_result\[186\]
*379 tdc0\.o_result\[187\]
*380 tdc0\.o_result\[188\]
*381 tdc0\.o_result\[189\]
*382 tdc0\.o_result\[18\]
*383 tdc0\.o_result\[190\]
*384 tdc0\.o_result\[191\]
*385 tdc0\.o_result\[19\]
*386 tdc0\.o_result\[1\]
*387 tdc0\.o_result\[20\]
*388 tdc0\.o_result\[21\]
*389 tdc0\.o_result\[22\]
*390 tdc0\.o_result\[23\]
*391 tdc0\.o_result\[24\]
*392 tdc0\.o_result\[25\]
*393 tdc0\.o_result\[26\]
*394 tdc0\.o_result\[27\]
*395 tdc0\.o_result\[28\]
*396 tdc0\.o_result\[29\]
*397 tdc0\.o_result\[2\]
*398 tdc0\.o_result\[30\]
*399 tdc0\.o_result\[31\]
*400 tdc0\.o_result\[32\]
*401 tdc0\.o_result\[33\]
*402 tdc0\.o_result\[34\]
*403 tdc0\.o_result\[35\]
*404 tdc0\.o_result\[36\]
*405 tdc0\.o_result\[37\]
*406 tdc0\.o_result\[38\]
*407 tdc0\.o_result\[39\]
*408 tdc0\.o_result\[3\]
*409 tdc0\.o_result\[40\]
*410 tdc0\.o_result\[41\]
*411 tdc0\.o_result\[42\]
*412 tdc0\.o_result\[43\]
*413 tdc0\.o_result\[44\]
*414 tdc0\.o_result\[45\]
*415 tdc0\.o_result\[46\]
*416 tdc0\.o_result\[47\]
*417 tdc0\.o_result\[48\]
*418 tdc0\.o_result\[49\]
*419 tdc0\.o_result\[4\]
*420 tdc0\.o_result\[50\]
*421 tdc0\.o_result\[51\]
*422 tdc0\.o_result\[52\]
*423 tdc0\.o_result\[53\]
*424 tdc0\.o_result\[54\]
*425 tdc0\.o_result\[55\]
*426 tdc0\.o_result\[56\]
*427 tdc0\.o_result\[57\]
*428 tdc0\.o_result\[58\]
*429 tdc0\.o_result\[59\]
*430 tdc0\.o_result\[5\]
*431 tdc0\.o_result\[60\]
*432 tdc0\.o_result\[61\]
*433 tdc0\.o_result\[62\]
*434 tdc0\.o_result\[63\]
*435 tdc0\.o_result\[64\]
*436 tdc0\.o_result\[65\]
*437 tdc0\.o_result\[66\]
*438 tdc0\.o_result\[67\]
*439 tdc0\.o_result\[68\]
*440 tdc0\.o_result\[69\]
*441 tdc0\.o_result\[6\]
*442 tdc0\.o_result\[70\]
*443 tdc0\.o_result\[71\]
*444 tdc0\.o_result\[72\]
*445 tdc0\.o_result\[73\]
*446 tdc0\.o_result\[74\]
*447 tdc0\.o_result\[75\]
*448 tdc0\.o_result\[76\]
*449 tdc0\.o_result\[77\]
*450 tdc0\.o_result\[78\]
*451 tdc0\.o_result\[79\]
*452 tdc0\.o_result\[7\]
*453 tdc0\.o_result\[80\]
*454 tdc0\.o_result\[81\]
*455 tdc0\.o_result\[82\]
*456 tdc0\.o_result\[83\]
*457 tdc0\.o_result\[84\]
*458 tdc0\.o_result\[85\]
*459 tdc0\.o_result\[86\]
*460 tdc0\.o_result\[87\]
*461 tdc0\.o_result\[88\]
*462 tdc0\.o_result\[89\]
*463 tdc0\.o_result\[8\]
*464 tdc0\.o_result\[90\]
*465 tdc0\.o_result\[91\]
*466 tdc0\.o_result\[92\]
*467 tdc0\.o_result\[93\]
*468 tdc0\.o_result\[94\]
*469 tdc0\.o_result\[95\]
*470 tdc0\.o_result\[96\]
*471 tdc0\.o_result\[97\]
*472 tdc0\.o_result\[98\]
*473 tdc0\.o_result\[99\]
*474 tdc0\.o_result\[9\]
*475 tdc0\.w_dly_sig\[0\]
*476 tdc0\.w_dly_sig\[100\]
*477 tdc0\.w_dly_sig\[101\]
*478 tdc0\.w_dly_sig\[102\]
*479 tdc0\.w_dly_sig\[103\]
*480 tdc0\.w_dly_sig\[104\]
*481 tdc0\.w_dly_sig\[105\]
*482 tdc0\.w_dly_sig\[106\]
*483 tdc0\.w_dly_sig\[107\]
*484 tdc0\.w_dly_sig\[108\]
*485 tdc0\.w_dly_sig\[109\]
*486 tdc0\.w_dly_sig\[10\]
*487 tdc0\.w_dly_sig\[110\]
*488 tdc0\.w_dly_sig\[111\]
*489 tdc0\.w_dly_sig\[112\]
*490 tdc0\.w_dly_sig\[113\]
*491 tdc0\.w_dly_sig\[114\]
*492 tdc0\.w_dly_sig\[115\]
*493 tdc0\.w_dly_sig\[116\]
*494 tdc0\.w_dly_sig\[117\]
*495 tdc0\.w_dly_sig\[118\]
*496 tdc0\.w_dly_sig\[119\]
*497 tdc0\.w_dly_sig\[11\]
*498 tdc0\.w_dly_sig\[120\]
*499 tdc0\.w_dly_sig\[121\]
*500 tdc0\.w_dly_sig\[122\]
*501 tdc0\.w_dly_sig\[123\]
*502 tdc0\.w_dly_sig\[124\]
*503 tdc0\.w_dly_sig\[125\]
*504 tdc0\.w_dly_sig\[126\]
*505 tdc0\.w_dly_sig\[127\]
*506 tdc0\.w_dly_sig\[128\]
*507 tdc0\.w_dly_sig\[129\]
*508 tdc0\.w_dly_sig\[12\]
*509 tdc0\.w_dly_sig\[130\]
*510 tdc0\.w_dly_sig\[131\]
*511 tdc0\.w_dly_sig\[132\]
*512 tdc0\.w_dly_sig\[133\]
*513 tdc0\.w_dly_sig\[134\]
*514 tdc0\.w_dly_sig\[135\]
*515 tdc0\.w_dly_sig\[136\]
*516 tdc0\.w_dly_sig\[137\]
*517 tdc0\.w_dly_sig\[138\]
*518 tdc0\.w_dly_sig\[139\]
*519 tdc0\.w_dly_sig\[13\]
*520 tdc0\.w_dly_sig\[140\]
*521 tdc0\.w_dly_sig\[141\]
*522 tdc0\.w_dly_sig\[142\]
*523 tdc0\.w_dly_sig\[143\]
*524 tdc0\.w_dly_sig\[144\]
*525 tdc0\.w_dly_sig\[145\]
*526 tdc0\.w_dly_sig\[146\]
*527 tdc0\.w_dly_sig\[147\]
*528 tdc0\.w_dly_sig\[148\]
*529 tdc0\.w_dly_sig\[149\]
*530 tdc0\.w_dly_sig\[14\]
*531 tdc0\.w_dly_sig\[150\]
*532 tdc0\.w_dly_sig\[151\]
*533 tdc0\.w_dly_sig\[152\]
*534 tdc0\.w_dly_sig\[153\]
*535 tdc0\.w_dly_sig\[154\]
*536 tdc0\.w_dly_sig\[155\]
*537 tdc0\.w_dly_sig\[156\]
*538 tdc0\.w_dly_sig\[157\]
*539 tdc0\.w_dly_sig\[158\]
*540 tdc0\.w_dly_sig\[159\]
*541 tdc0\.w_dly_sig\[15\]
*542 tdc0\.w_dly_sig\[160\]
*543 tdc0\.w_dly_sig\[161\]
*544 tdc0\.w_dly_sig\[162\]
*545 tdc0\.w_dly_sig\[163\]
*546 tdc0\.w_dly_sig\[164\]
*547 tdc0\.w_dly_sig\[165\]
*548 tdc0\.w_dly_sig\[166\]
*549 tdc0\.w_dly_sig\[167\]
*550 tdc0\.w_dly_sig\[168\]
*551 tdc0\.w_dly_sig\[169\]
*552 tdc0\.w_dly_sig\[16\]
*553 tdc0\.w_dly_sig\[170\]
*554 tdc0\.w_dly_sig\[171\]
*555 tdc0\.w_dly_sig\[172\]
*556 tdc0\.w_dly_sig\[173\]
*557 tdc0\.w_dly_sig\[174\]
*558 tdc0\.w_dly_sig\[175\]
*559 tdc0\.w_dly_sig\[176\]
*560 tdc0\.w_dly_sig\[177\]
*561 tdc0\.w_dly_sig\[178\]
*562 tdc0\.w_dly_sig\[179\]
*563 tdc0\.w_dly_sig\[17\]
*564 tdc0\.w_dly_sig\[180\]
*565 tdc0\.w_dly_sig\[181\]
*566 tdc0\.w_dly_sig\[182\]
*567 tdc0\.w_dly_sig\[183\]
*568 tdc0\.w_dly_sig\[184\]
*569 tdc0\.w_dly_sig\[185\]
*570 tdc0\.w_dly_sig\[186\]
*571 tdc0\.w_dly_sig\[187\]
*572 tdc0\.w_dly_sig\[188\]
*573 tdc0\.w_dly_sig\[189\]
*574 tdc0\.w_dly_sig\[18\]
*575 tdc0\.w_dly_sig\[190\]
*576 tdc0\.w_dly_sig\[191\]
*577 tdc0\.w_dly_sig\[192\]
*578 tdc0\.w_dly_sig\[193\]
*579 tdc0\.w_dly_sig\[19\]
*580 tdc0\.w_dly_sig\[1\]
*581 tdc0\.w_dly_sig\[20\]
*582 tdc0\.w_dly_sig\[21\]
*583 tdc0\.w_dly_sig\[22\]
*584 tdc0\.w_dly_sig\[23\]
*585 tdc0\.w_dly_sig\[24\]
*586 tdc0\.w_dly_sig\[25\]
*587 tdc0\.w_dly_sig\[26\]
*588 tdc0\.w_dly_sig\[27\]
*589 tdc0\.w_dly_sig\[28\]
*590 tdc0\.w_dly_sig\[29\]
*591 tdc0\.w_dly_sig\[2\]
*592 tdc0\.w_dly_sig\[30\]
*593 tdc0\.w_dly_sig\[31\]
*594 tdc0\.w_dly_sig\[32\]
*595 tdc0\.w_dly_sig\[33\]
*596 tdc0\.w_dly_sig\[34\]
*597 tdc0\.w_dly_sig\[35\]
*598 tdc0\.w_dly_sig\[36\]
*599 tdc0\.w_dly_sig\[37\]
*600 tdc0\.w_dly_sig\[38\]
*601 tdc0\.w_dly_sig\[39\]
*602 tdc0\.w_dly_sig\[3\]
*603 tdc0\.w_dly_sig\[40\]
*604 tdc0\.w_dly_sig\[41\]
*605 tdc0\.w_dly_sig\[42\]
*606 tdc0\.w_dly_sig\[43\]
*607 tdc0\.w_dly_sig\[44\]
*608 tdc0\.w_dly_sig\[45\]
*609 tdc0\.w_dly_sig\[46\]
*610 tdc0\.w_dly_sig\[47\]
*611 tdc0\.w_dly_sig\[48\]
*612 tdc0\.w_dly_sig\[49\]
*613 tdc0\.w_dly_sig\[4\]
*614 tdc0\.w_dly_sig\[50\]
*615 tdc0\.w_dly_sig\[51\]
*616 tdc0\.w_dly_sig\[52\]
*617 tdc0\.w_dly_sig\[53\]
*618 tdc0\.w_dly_sig\[54\]
*619 tdc0\.w_dly_sig\[55\]
*620 tdc0\.w_dly_sig\[56\]
*621 tdc0\.w_dly_sig\[57\]
*622 tdc0\.w_dly_sig\[58\]
*623 tdc0\.w_dly_sig\[59\]
*624 tdc0\.w_dly_sig\[5\]
*625 tdc0\.w_dly_sig\[60\]
*626 tdc0\.w_dly_sig\[61\]
*627 tdc0\.w_dly_sig\[62\]
*628 tdc0\.w_dly_sig\[63\]
*629 tdc0\.w_dly_sig\[64\]
*630 tdc0\.w_dly_sig\[65\]
*631 tdc0\.w_dly_sig\[66\]
*632 tdc0\.w_dly_sig\[67\]
*633 tdc0\.w_dly_sig\[68\]
*634 tdc0\.w_dly_sig\[69\]
*635 tdc0\.w_dly_sig\[6\]
*636 tdc0\.w_dly_sig\[70\]
*637 tdc0\.w_dly_sig\[71\]
*638 tdc0\.w_dly_sig\[72\]
*639 tdc0\.w_dly_sig\[73\]
*640 tdc0\.w_dly_sig\[74\]
*641 tdc0\.w_dly_sig\[75\]
*642 tdc0\.w_dly_sig\[76\]
*643 tdc0\.w_dly_sig\[77\]
*644 tdc0\.w_dly_sig\[78\]
*645 tdc0\.w_dly_sig\[79\]
*646 tdc0\.w_dly_sig\[7\]
*647 tdc0\.w_dly_sig\[80\]
*648 tdc0\.w_dly_sig\[81\]
*649 tdc0\.w_dly_sig\[82\]
*650 tdc0\.w_dly_sig\[83\]
*651 tdc0\.w_dly_sig\[84\]
*652 tdc0\.w_dly_sig\[85\]
*653 tdc0\.w_dly_sig\[86\]
*654 tdc0\.w_dly_sig\[87\]
*655 tdc0\.w_dly_sig\[88\]
*656 tdc0\.w_dly_sig\[89\]
*657 tdc0\.w_dly_sig\[8\]
*658 tdc0\.w_dly_sig\[90\]
*659 tdc0\.w_dly_sig\[91\]
*660 tdc0\.w_dly_sig\[92\]
*661 tdc0\.w_dly_sig\[93\]
*662 tdc0\.w_dly_sig\[94\]
*663 tdc0\.w_dly_sig\[95\]
*664 tdc0\.w_dly_sig\[96\]
*665 tdc0\.w_dly_sig\[97\]
*666 tdc0\.w_dly_sig\[98\]
*667 tdc0\.w_dly_sig\[99\]
*668 tdc0\.w_dly_sig\[9\]
*669 tdc0\.w_dly_sig_n\[0\]
*670 tdc0\.w_dly_sig_n\[100\]
*671 tdc0\.w_dly_sig_n\[101\]
*672 tdc0\.w_dly_sig_n\[102\]
*673 tdc0\.w_dly_sig_n\[103\]
*674 tdc0\.w_dly_sig_n\[104\]
*675 tdc0\.w_dly_sig_n\[105\]
*676 tdc0\.w_dly_sig_n\[106\]
*677 tdc0\.w_dly_sig_n\[107\]
*678 tdc0\.w_dly_sig_n\[108\]
*679 tdc0\.w_dly_sig_n\[109\]
*680 tdc0\.w_dly_sig_n\[10\]
*681 tdc0\.w_dly_sig_n\[110\]
*682 tdc0\.w_dly_sig_n\[111\]
*683 tdc0\.w_dly_sig_n\[112\]
*684 tdc0\.w_dly_sig_n\[113\]
*685 tdc0\.w_dly_sig_n\[114\]
*686 tdc0\.w_dly_sig_n\[115\]
*687 tdc0\.w_dly_sig_n\[116\]
*688 tdc0\.w_dly_sig_n\[117\]
*689 tdc0\.w_dly_sig_n\[118\]
*690 tdc0\.w_dly_sig_n\[119\]
*691 tdc0\.w_dly_sig_n\[11\]
*692 tdc0\.w_dly_sig_n\[120\]
*693 tdc0\.w_dly_sig_n\[121\]
*694 tdc0\.w_dly_sig_n\[122\]
*695 tdc0\.w_dly_sig_n\[123\]
*696 tdc0\.w_dly_sig_n\[124\]
*697 tdc0\.w_dly_sig_n\[125\]
*698 tdc0\.w_dly_sig_n\[126\]
*699 tdc0\.w_dly_sig_n\[127\]
*700 tdc0\.w_dly_sig_n\[128\]
*701 tdc0\.w_dly_sig_n\[129\]
*702 tdc0\.w_dly_sig_n\[12\]
*703 tdc0\.w_dly_sig_n\[130\]
*704 tdc0\.w_dly_sig_n\[131\]
*705 tdc0\.w_dly_sig_n\[132\]
*706 tdc0\.w_dly_sig_n\[133\]
*707 tdc0\.w_dly_sig_n\[134\]
*708 tdc0\.w_dly_sig_n\[135\]
*709 tdc0\.w_dly_sig_n\[136\]
*710 tdc0\.w_dly_sig_n\[137\]
*711 tdc0\.w_dly_sig_n\[138\]
*712 tdc0\.w_dly_sig_n\[139\]
*713 tdc0\.w_dly_sig_n\[13\]
*714 tdc0\.w_dly_sig_n\[140\]
*715 tdc0\.w_dly_sig_n\[141\]
*716 tdc0\.w_dly_sig_n\[142\]
*717 tdc0\.w_dly_sig_n\[143\]
*718 tdc0\.w_dly_sig_n\[144\]
*719 tdc0\.w_dly_sig_n\[145\]
*720 tdc0\.w_dly_sig_n\[146\]
*721 tdc0\.w_dly_sig_n\[147\]
*722 tdc0\.w_dly_sig_n\[148\]
*723 tdc0\.w_dly_sig_n\[149\]
*724 tdc0\.w_dly_sig_n\[14\]
*725 tdc0\.w_dly_sig_n\[150\]
*726 tdc0\.w_dly_sig_n\[151\]
*727 tdc0\.w_dly_sig_n\[152\]
*728 tdc0\.w_dly_sig_n\[153\]
*729 tdc0\.w_dly_sig_n\[154\]
*730 tdc0\.w_dly_sig_n\[155\]
*731 tdc0\.w_dly_sig_n\[156\]
*732 tdc0\.w_dly_sig_n\[157\]
*733 tdc0\.w_dly_sig_n\[158\]
*734 tdc0\.w_dly_sig_n\[159\]
*735 tdc0\.w_dly_sig_n\[15\]
*736 tdc0\.w_dly_sig_n\[160\]
*737 tdc0\.w_dly_sig_n\[161\]
*738 tdc0\.w_dly_sig_n\[162\]
*739 tdc0\.w_dly_sig_n\[163\]
*740 tdc0\.w_dly_sig_n\[164\]
*741 tdc0\.w_dly_sig_n\[165\]
*742 tdc0\.w_dly_sig_n\[166\]
*743 tdc0\.w_dly_sig_n\[167\]
*744 tdc0\.w_dly_sig_n\[168\]
*745 tdc0\.w_dly_sig_n\[169\]
*746 tdc0\.w_dly_sig_n\[16\]
*747 tdc0\.w_dly_sig_n\[170\]
*748 tdc0\.w_dly_sig_n\[171\]
*749 tdc0\.w_dly_sig_n\[172\]
*750 tdc0\.w_dly_sig_n\[173\]
*751 tdc0\.w_dly_sig_n\[174\]
*752 tdc0\.w_dly_sig_n\[175\]
*753 tdc0\.w_dly_sig_n\[176\]
*754 tdc0\.w_dly_sig_n\[177\]
*755 tdc0\.w_dly_sig_n\[178\]
*756 tdc0\.w_dly_sig_n\[179\]
*757 tdc0\.w_dly_sig_n\[17\]
*758 tdc0\.w_dly_sig_n\[180\]
*759 tdc0\.w_dly_sig_n\[181\]
*760 tdc0\.w_dly_sig_n\[182\]
*761 tdc0\.w_dly_sig_n\[183\]
*762 tdc0\.w_dly_sig_n\[184\]
*763 tdc0\.w_dly_sig_n\[185\]
*764 tdc0\.w_dly_sig_n\[186\]
*765 tdc0\.w_dly_sig_n\[187\]
*766 tdc0\.w_dly_sig_n\[188\]
*767 tdc0\.w_dly_sig_n\[189\]
*768 tdc0\.w_dly_sig_n\[18\]
*769 tdc0\.w_dly_sig_n\[190\]
*770 tdc0\.w_dly_sig_n\[191\]
*771 tdc0\.w_dly_sig_n\[192\]
*772 tdc0\.w_dly_sig_n\[19\]
*773 tdc0\.w_dly_sig_n\[1\]
*774 tdc0\.w_dly_sig_n\[20\]
*775 tdc0\.w_dly_sig_n\[21\]
*776 tdc0\.w_dly_sig_n\[22\]
*777 tdc0\.w_dly_sig_n\[23\]
*778 tdc0\.w_dly_sig_n\[24\]
*779 tdc0\.w_dly_sig_n\[25\]
*780 tdc0\.w_dly_sig_n\[26\]
*781 tdc0\.w_dly_sig_n\[27\]
*782 tdc0\.w_dly_sig_n\[28\]
*783 tdc0\.w_dly_sig_n\[29\]
*784 tdc0\.w_dly_sig_n\[2\]
*785 tdc0\.w_dly_sig_n\[30\]
*786 tdc0\.w_dly_sig_n\[31\]
*787 tdc0\.w_dly_sig_n\[32\]
*788 tdc0\.w_dly_sig_n\[33\]
*789 tdc0\.w_dly_sig_n\[34\]
*790 tdc0\.w_dly_sig_n\[35\]
*791 tdc0\.w_dly_sig_n\[36\]
*792 tdc0\.w_dly_sig_n\[37\]
*793 tdc0\.w_dly_sig_n\[38\]
*794 tdc0\.w_dly_sig_n\[39\]
*795 tdc0\.w_dly_sig_n\[3\]
*796 tdc0\.w_dly_sig_n\[40\]
*797 tdc0\.w_dly_sig_n\[41\]
*798 tdc0\.w_dly_sig_n\[42\]
*799 tdc0\.w_dly_sig_n\[43\]
*800 tdc0\.w_dly_sig_n\[44\]
*801 tdc0\.w_dly_sig_n\[45\]
*802 tdc0\.w_dly_sig_n\[46\]
*803 tdc0\.w_dly_sig_n\[47\]
*804 tdc0\.w_dly_sig_n\[48\]
*805 tdc0\.w_dly_sig_n\[49\]
*806 tdc0\.w_dly_sig_n\[4\]
*807 tdc0\.w_dly_sig_n\[50\]
*808 tdc0\.w_dly_sig_n\[51\]
*809 tdc0\.w_dly_sig_n\[52\]
*810 tdc0\.w_dly_sig_n\[53\]
*811 tdc0\.w_dly_sig_n\[54\]
*812 tdc0\.w_dly_sig_n\[55\]
*813 tdc0\.w_dly_sig_n\[56\]
*814 tdc0\.w_dly_sig_n\[57\]
*815 tdc0\.w_dly_sig_n\[58\]
*816 tdc0\.w_dly_sig_n\[59\]
*817 tdc0\.w_dly_sig_n\[5\]
*818 tdc0\.w_dly_sig_n\[60\]
*819 tdc0\.w_dly_sig_n\[61\]
*820 tdc0\.w_dly_sig_n\[62\]
*821 tdc0\.w_dly_sig_n\[63\]
*822 tdc0\.w_dly_sig_n\[64\]
*823 tdc0\.w_dly_sig_n\[65\]
*824 tdc0\.w_dly_sig_n\[66\]
*825 tdc0\.w_dly_sig_n\[67\]
*826 tdc0\.w_dly_sig_n\[68\]
*827 tdc0\.w_dly_sig_n\[69\]
*828 tdc0\.w_dly_sig_n\[6\]
*829 tdc0\.w_dly_sig_n\[70\]
*830 tdc0\.w_dly_sig_n\[71\]
*831 tdc0\.w_dly_sig_n\[72\]
*832 tdc0\.w_dly_sig_n\[73\]
*833 tdc0\.w_dly_sig_n\[74\]
*834 tdc0\.w_dly_sig_n\[75\]
*835 tdc0\.w_dly_sig_n\[76\]
*836 tdc0\.w_dly_sig_n\[77\]
*837 tdc0\.w_dly_sig_n\[78\]
*838 tdc0\.w_dly_sig_n\[79\]
*839 tdc0\.w_dly_sig_n\[7\]
*840 tdc0\.w_dly_sig_n\[80\]
*841 tdc0\.w_dly_sig_n\[81\]
*842 tdc0\.w_dly_sig_n\[82\]
*843 tdc0\.w_dly_sig_n\[83\]
*844 tdc0\.w_dly_sig_n\[84\]
*845 tdc0\.w_dly_sig_n\[85\]
*846 tdc0\.w_dly_sig_n\[86\]
*847 tdc0\.w_dly_sig_n\[87\]
*848 tdc0\.w_dly_sig_n\[88\]
*849 tdc0\.w_dly_sig_n\[89\]
*850 tdc0\.w_dly_sig_n\[8\]
*851 tdc0\.w_dly_sig_n\[90\]
*852 tdc0\.w_dly_sig_n\[91\]
*853 tdc0\.w_dly_sig_n\[92\]
*854 tdc0\.w_dly_sig_n\[93\]
*855 tdc0\.w_dly_sig_n\[94\]
*856 tdc0\.w_dly_sig_n\[95\]
*857 tdc0\.w_dly_sig_n\[96\]
*858 tdc0\.w_dly_sig_n\[97\]
*859 tdc0\.w_dly_sig_n\[98\]
*860 tdc0\.w_dly_sig_n\[99\]
*861 tdc0\.w_dly_sig_n\[9\]
*862 ANTENNA_1
*863 FILLER_0_0_109
*864 FILLER_0_0_113
*865 FILLER_0_0_125
*866 FILLER_0_0_137
*867 FILLER_0_0_141
*868 FILLER_0_0_15
*869 FILLER_0_0_153
*870 FILLER_0_0_165
*871 FILLER_0_0_169
*872 FILLER_0_0_181
*873 FILLER_0_0_193
*874 FILLER_0_0_197
*875 FILLER_0_0_209
*876 FILLER_0_0_221
*877 FILLER_0_0_225
*878 FILLER_0_0_237
*879 FILLER_0_0_249
*880 FILLER_0_0_253
*881 FILLER_0_0_265
*882 FILLER_0_0_27
*883 FILLER_0_0_277
*884 FILLER_0_0_281
*885 FILLER_0_0_29
*886 FILLER_0_0_293
*887 FILLER_0_0_3
*888 FILLER_0_0_305
*889 FILLER_0_0_309
*890 FILLER_0_0_321
*891 FILLER_0_0_333
*892 FILLER_0_0_41
*893 FILLER_0_0_53
*894 FILLER_0_0_57
*895 FILLER_0_0_69
*896 FILLER_0_0_81
*897 FILLER_0_0_85
*898 FILLER_0_0_97
*899 FILLER_0_10_115
*900 FILLER_0_10_127
*901 FILLER_0_10_135
*902 FILLER_0_10_141
*903 FILLER_0_10_15
*904 FILLER_0_10_190
*905 FILLER_0_10_197
*906 FILLER_0_10_201
*907 FILLER_0_10_250
*908 FILLER_0_10_256
*909 FILLER_0_10_27
*910 FILLER_0_10_275
*911 FILLER_0_10_29
*912 FILLER_0_10_293
*913 FILLER_0_10_3
*914 FILLER_0_10_305
*915 FILLER_0_10_309
*916 FILLER_0_10_321
*917 FILLER_0_10_333
*918 FILLER_0_10_41
*919 FILLER_0_10_53
*920 FILLER_0_10_64
*921 FILLER_0_10_85
*922 FILLER_0_11_100
*923 FILLER_0_11_141
*924 FILLER_0_11_15
*925 FILLER_0_11_158
*926 FILLER_0_11_166
*927 FILLER_0_11_169
*928 FILLER_0_11_177
*929 FILLER_0_11_184
*930 FILLER_0_11_208
*931 FILLER_0_11_220
*932 FILLER_0_11_225
*933 FILLER_0_11_237
*934 FILLER_0_11_257
*935 FILLER_0_11_261
*936 FILLER_0_11_27
*937 FILLER_0_11_3
*938 FILLER_0_11_303
*939 FILLER_0_11_315
*940 FILLER_0_11_327
*941 FILLER_0_11_39
*942 FILLER_0_11_43
*943 FILLER_0_11_51
*944 FILLER_0_11_55
*945 FILLER_0_11_73
*946 FILLER_0_11_92
*947 FILLER_0_12_120
*948 FILLER_0_12_132
*949 FILLER_0_12_141
*950 FILLER_0_12_158
*951 FILLER_0_12_185
*952 FILLER_0_12_191
*953 FILLER_0_12_195
*954 FILLER_0_12_21
*955 FILLER_0_12_222
*956 FILLER_0_12_233
*957 FILLER_0_12_247
*958 FILLER_0_12_251
*959 FILLER_0_12_253
*960 FILLER_0_12_27
*961 FILLER_0_12_274
*962 FILLER_0_12_287
*963 FILLER_0_12_29
*964 FILLER_0_12_291
*965 FILLER_0_12_3
*966 FILLER_0_12_309
*967 FILLER_0_12_321
*968 FILLER_0_12_333
*969 FILLER_0_12_64
*970 FILLER_0_12_71
*971 FILLER_0_12_75
*972 FILLER_0_12_82
*973 FILLER_0_12_91
*974 FILLER_0_12_96
*975 FILLER_0_13_108
*976 FILLER_0_13_129
*977 FILLER_0_13_151
*978 FILLER_0_13_155
*979 FILLER_0_13_161
*980 FILLER_0_13_167
*981 FILLER_0_13_183
*982 FILLER_0_13_187
*983 FILLER_0_13_196
*984 FILLER_0_13_205
*985 FILLER_0_13_216
*986 FILLER_0_13_235
*987 FILLER_0_13_246
*988 FILLER_0_13_254
*989 FILLER_0_13_259
*990 FILLER_0_13_271
*991 FILLER_0_13_281
*992 FILLER_0_13_286
*993 FILLER_0_13_297
*994 FILLER_0_13_3
*995 FILLER_0_13_309
*996 FILLER_0_13_321
*997 FILLER_0_13_333
*998 FILLER_0_13_46
*999 FILLER_0_13_52
*1000 FILLER_0_13_57
*1001 FILLER_0_13_63
*1002 FILLER_0_13_67
*1003 FILLER_0_14_11
*1004 FILLER_0_14_118
*1005 FILLER_0_14_122
*1006 FILLER_0_14_139
*1007 FILLER_0_14_146
*1008 FILLER_0_14_153
*1009 FILLER_0_14_17
*1010 FILLER_0_14_177
*1011 FILLER_0_14_185
*1012 FILLER_0_14_197
*1013 FILLER_0_14_204
*1014 FILLER_0_14_212
*1015 FILLER_0_14_232
*1016 FILLER_0_14_24
*1017 FILLER_0_14_250
*1018 FILLER_0_14_272
*1019 FILLER_0_14_280
*1020 FILLER_0_14_29
*1021 FILLER_0_14_3
*1022 FILLER_0_14_325
*1023 FILLER_0_14_333
*1024 FILLER_0_14_37
*1025 FILLER_0_14_45
*1026 FILLER_0_14_64
*1027 FILLER_0_14_81
*1028 FILLER_0_14_85
*1029 FILLER_0_14_91
*1030 FILLER_0_14_98
*1031 FILLER_0_15_106
*1032 FILLER_0_15_113
*1033 FILLER_0_15_156
*1034 FILLER_0_15_169
*1035 FILLER_0_15_180
*1036 FILLER_0_15_190
*1037 FILLER_0_15_198
*1038 FILLER_0_15_212
*1039 FILLER_0_15_230
*1040 FILLER_0_15_279
*1041 FILLER_0_15_281
*1042 FILLER_0_15_287
*1043 FILLER_0_15_3
*1044 FILLER_0_15_308
*1045 FILLER_0_15_318
*1046 FILLER_0_15_53
*1047 FILLER_0_15_73
*1048 FILLER_0_16_109
*1049 FILLER_0_16_11
*1050 FILLER_0_16_128
*1051 FILLER_0_16_141
*1052 FILLER_0_16_151
*1053 FILLER_0_16_16
*1054 FILLER_0_16_163
*1055 FILLER_0_16_186
*1056 FILLER_0_16_194
*1057 FILLER_0_16_197
*1058 FILLER_0_16_220
*1059 FILLER_0_16_24
*1060 FILLER_0_16_245
*1061 FILLER_0_16_251
*1062 FILLER_0_16_253
*1063 FILLER_0_16_261
*1064 FILLER_0_16_298
*1065 FILLER_0_16_3
*1066 FILLER_0_16_304
*1067 FILLER_0_16_333
*1068 FILLER_0_16_45
*1069 FILLER_0_16_51
*1070 FILLER_0_16_68
*1071 FILLER_0_16_80
*1072 FILLER_0_16_85
*1073 FILLER_0_16_97
*1074 FILLER_0_17_106
*1075 FILLER_0_17_113
*1076 FILLER_0_17_121
*1077 FILLER_0_17_139
*1078 FILLER_0_17_146
*1079 FILLER_0_17_156
*1080 FILLER_0_17_167
*1081 FILLER_0_17_169
*1082 FILLER_0_17_181
*1083 FILLER_0_17_189
*1084 FILLER_0_17_205
*1085 FILLER_0_17_217
*1086 FILLER_0_17_22
*1087 FILLER_0_17_223
*1088 FILLER_0_17_233
*1089 FILLER_0_17_250
*1090 FILLER_0_17_268
*1091 FILLER_0_17_27
*1092 FILLER_0_17_281
*1093 FILLER_0_17_3
*1094 FILLER_0_17_300
*1095 FILLER_0_17_330
*1096 FILLER_0_17_334
*1097 FILLER_0_17_51
*1098 FILLER_0_17_55
*1099 FILLER_0_17_57
*1100 FILLER_0_17_70
*1101 FILLER_0_17_88
*1102 FILLER_0_17_9
*1103 FILLER_0_18_101
*1104 FILLER_0_18_123
*1105 FILLER_0_18_135
*1106 FILLER_0_18_139
*1107 FILLER_0_18_141
*1108 FILLER_0_18_149
*1109 FILLER_0_18_161
*1110 FILLER_0_18_188
*1111 FILLER_0_18_197
*1112 FILLER_0_18_221
*1113 FILLER_0_18_229
*1114 FILLER_0_18_24
*1115 FILLER_0_18_248
*1116 FILLER_0_18_269
*1117 FILLER_0_18_29
*1118 FILLER_0_18_293
*1119 FILLER_0_18_305
*1120 FILLER_0_18_309
*1121 FILLER_0_18_317
*1122 FILLER_0_18_57
*1123 FILLER_0_18_82
*1124 FILLER_0_18_88
*1125 FILLER_0_18_94
*1126 FILLER_0_19_105
*1127 FILLER_0_19_110
*1128 FILLER_0_19_113
*1129 FILLER_0_19_121
*1130 FILLER_0_19_126
*1131 FILLER_0_19_143
*1132 FILLER_0_19_167
*1133 FILLER_0_19_183
*1134 FILLER_0_19_189
*1135 FILLER_0_19_204
*1136 FILLER_0_19_208
*1137 FILLER_0_19_221
*1138 FILLER_0_19_242
*1139 FILLER_0_19_254
*1140 FILLER_0_19_260
*1141 FILLER_0_19_281
*1142 FILLER_0_19_285
*1143 FILLER_0_19_3
*1144 FILLER_0_19_302
*1145 FILLER_0_19_309
*1146 FILLER_0_19_313
*1147 FILLER_0_19_317
*1148 FILLER_0_19_334
*1149 FILLER_0_19_57
*1150 FILLER_0_19_79
*1151 FILLER_0_19_98
*1152 FILLER_0_1_105
*1153 FILLER_0_1_111
*1154 FILLER_0_1_113
*1155 FILLER_0_1_125
*1156 FILLER_0_1_137
*1157 FILLER_0_1_149
*1158 FILLER_0_1_15
*1159 FILLER_0_1_161
*1160 FILLER_0_1_167
*1161 FILLER_0_1_169
*1162 FILLER_0_1_181
*1163 FILLER_0_1_193
*1164 FILLER_0_1_205
*1165 FILLER_0_1_217
*1166 FILLER_0_1_223
*1167 FILLER_0_1_225
*1168 FILLER_0_1_237
*1169 FILLER_0_1_249
*1170 FILLER_0_1_261
*1171 FILLER_0_1_27
*1172 FILLER_0_1_273
*1173 FILLER_0_1_279
*1174 FILLER_0_1_281
*1175 FILLER_0_1_293
*1176 FILLER_0_1_3
*1177 FILLER_0_1_305
*1178 FILLER_0_1_317
*1179 FILLER_0_1_329
*1180 FILLER_0_1_39
*1181 FILLER_0_1_51
*1182 FILLER_0_1_55
*1183 FILLER_0_1_57
*1184 FILLER_0_1_69
*1185 FILLER_0_1_81
*1186 FILLER_0_1_93
*1187 FILLER_0_20_122
*1188 FILLER_0_20_141
*1189 FILLER_0_20_149
*1190 FILLER_0_20_155
*1191 FILLER_0_20_166
*1192 FILLER_0_20_193
*1193 FILLER_0_20_209
*1194 FILLER_0_20_21
*1195 FILLER_0_20_217
*1196 FILLER_0_20_223
*1197 FILLER_0_20_242
*1198 FILLER_0_20_248
*1199 FILLER_0_20_269
*1200 FILLER_0_20_27
*1201 FILLER_0_20_273
*1202 FILLER_0_20_278
*1203 FILLER_0_20_29
*1204 FILLER_0_20_291
*1205 FILLER_0_20_3
*1206 FILLER_0_20_301
*1207 FILLER_0_20_306
*1208 FILLER_0_20_325
*1209 FILLER_0_20_333
*1210 FILLER_0_20_41
*1211 FILLER_0_20_45
*1212 FILLER_0_20_49
*1213 FILLER_0_20_53
*1214 FILLER_0_20_68
*1215 FILLER_0_20_81
*1216 FILLER_0_20_85
*1217 FILLER_0_20_93
*1218 FILLER_0_20_99
*1219 FILLER_0_21_105
*1220 FILLER_0_21_113
*1221 FILLER_0_21_120
*1222 FILLER_0_21_126
*1223 FILLER_0_21_146
*1224 FILLER_0_21_158
*1225 FILLER_0_21_166
*1226 FILLER_0_21_169
*1227 FILLER_0_21_191
*1228 FILLER_0_21_207
*1229 FILLER_0_21_217
*1230 FILLER_0_21_223
*1231 FILLER_0_21_234
*1232 FILLER_0_21_238
*1233 FILLER_0_21_255
*1234 FILLER_0_21_276
*1235 FILLER_0_21_287
*1236 FILLER_0_21_291
*1237 FILLER_0_21_3
*1238 FILLER_0_21_322
*1239 FILLER_0_21_328
*1240 FILLER_0_21_334
*1241 FILLER_0_21_44
*1242 FILLER_0_21_57
*1243 FILLER_0_21_80
*1244 FILLER_0_21_97
*1245 FILLER_0_22_104
*1246 FILLER_0_22_108
*1247 FILLER_0_22_141
*1248 FILLER_0_22_159
*1249 FILLER_0_22_167
*1250 FILLER_0_22_189
*1251 FILLER_0_22_19
*1252 FILLER_0_22_197
*1253 FILLER_0_22_205
*1254 FILLER_0_22_210
*1255 FILLER_0_22_222
*1256 FILLER_0_22_233
*1257 FILLER_0_22_245
*1258 FILLER_0_22_251
*1259 FILLER_0_22_253
*1260 FILLER_0_22_257
*1261 FILLER_0_22_268
*1262 FILLER_0_22_27
*1263 FILLER_0_22_278
*1264 FILLER_0_22_284
*1265 FILLER_0_22_288
*1266 FILLER_0_22_29
*1267 FILLER_0_22_3
*1268 FILLER_0_22_305
*1269 FILLER_0_22_309
*1270 FILLER_0_22_333
*1271 FILLER_0_22_41
*1272 FILLER_0_22_50
*1273 FILLER_0_22_63
*1274 FILLER_0_22_75
*1275 FILLER_0_22_83
*1276 FILLER_0_22_9
*1277 FILLER_0_23_101
*1278 FILLER_0_23_105
*1279 FILLER_0_23_113
*1280 FILLER_0_23_127
*1281 FILLER_0_23_139
*1282 FILLER_0_23_157
*1283 FILLER_0_23_165
*1284 FILLER_0_23_175
*1285 FILLER_0_23_191
*1286 FILLER_0_23_202
*1287 FILLER_0_23_208
*1288 FILLER_0_23_223
*1289 FILLER_0_23_225
*1290 FILLER_0_23_229
*1291 FILLER_0_23_249
*1292 FILLER_0_23_279
*1293 FILLER_0_23_29
*1294 FILLER_0_23_297
*1295 FILLER_0_23_3
*1296 FILLER_0_23_309
*1297 FILLER_0_23_319
*1298 FILLER_0_23_323
*1299 FILLER_0_23_333
*1300 FILLER_0_23_37
*1301 FILLER_0_23_52
*1302 FILLER_0_23_57
*1303 FILLER_0_23_75
*1304 FILLER_0_23_97
*1305 FILLER_0_24_139
*1306 FILLER_0_24_141
*1307 FILLER_0_24_164
*1308 FILLER_0_24_173
*1309 FILLER_0_24_185
*1310 FILLER_0_24_193
*1311 FILLER_0_24_239
*1312 FILLER_0_24_247
*1313 FILLER_0_24_265
*1314 FILLER_0_24_277
*1315 FILLER_0_24_289
*1316 FILLER_0_24_29
*1317 FILLER_0_24_3
*1318 FILLER_0_24_312
*1319 FILLER_0_24_37
*1320 FILLER_0_24_58
*1321 FILLER_0_24_78
*1322 FILLER_0_24_85
*1323 FILLER_0_24_91
*1324 FILLER_0_25_101
*1325 FILLER_0_25_109
*1326 FILLER_0_25_113
*1327 FILLER_0_25_117
*1328 FILLER_0_25_124
*1329 FILLER_0_25_136
*1330 FILLER_0_25_156
*1331 FILLER_0_25_178
*1332 FILLER_0_25_197
*1333 FILLER_0_25_210
*1334 FILLER_0_25_222
*1335 FILLER_0_25_225
*1336 FILLER_0_25_243
*1337 FILLER_0_25_261
*1338 FILLER_0_25_297
*1339 FILLER_0_25_3
*1340 FILLER_0_25_309
*1341 FILLER_0_25_333
*1342 FILLER_0_25_37
*1343 FILLER_0_25_55
*1344 FILLER_0_25_60
*1345 FILLER_0_25_69
*1346 FILLER_0_25_75
*1347 FILLER_0_25_81
*1348 FILLER_0_26_141
*1349 FILLER_0_26_15
*1350 FILLER_0_26_158