*SPEF "ieee 1481-1999"
*DESIGN "tt_um_faramire_gate_guesser"
*DATE "11:11:11 Fri 11 11, 1111"
*VENDOR "OpenRCX"
*PROGRAM "Parallel Extraction"
*VERSION "1.0"
*DESIGN_FLOW "NAME_SCOPE LOCAL" "PIN_CAP NONE"
*DIVIDER /
*DELIMITER :
*BUS_DELIMITER []
*T_UNIT 1 NS
*C_UNIT 1 PF
*R_UNIT 1 OHM
*L_UNIT 1 HENRY

*NAME_MAP
*3 clk
*4 ena
*5 rst_n
*6 ui_in[0]
*7 ui_in[1]
*8 ui_in[2]
*9 ui_in[3]
*10 ui_in[4]
*11 ui_in[5]
*12 ui_in[6]
*13 ui_in[7]
*14 uio_in[0]
*15 uio_in[1]
*16 uio_in[2]
*17 uio_in[3]
*18 uio_in[4]
*19 uio_in[5]
*20 uio_in[6]
*21 uio_in[7]
*22 net17
*23 net18
*24 net19
*25 net20
*26 net21
*27 net22
*28 net23
*29 net24
*30 net25
*31 net26
*32 net27
*33 net28
*34 net29
*35 net30
*36 net31
*37 net32
*38 uo_out[0]
*39 uo_out[1]
*40 uo_out[2]
*41 uo_out[3]
*42 uo_out[4]
*43 uo_out[5]
*44 uo_out[6]
*45 uo_out[7]
*46 _00_
*47 _01_
*48 _02_
*49 net1
*50 net10
*51 net11
*52 net12
*53 net13
*54 net14
*55 net15
*56 net16
*57 net2
*58 net3
*59 net4
*60 net5
*61 net6
*62 net7
*63 net8
*64 net9
*65 FILLER_0_0_109
*66 FILLER_0_0_113
*67 FILLER_0_0_125
*68 FILLER_0_0_137
*69 FILLER_0_0_141
*70 FILLER_0_0_15
*71 FILLER_0_0_153
*72 FILLER_0_0_165
*73 FILLER_0_0_169
*74 FILLER_0_0_181
*75 FILLER_0_0_193
*76 FILLER_0_0_197
*77 FILLER_0_0_209
*78 FILLER_0_0_221
*79 FILLER_0_0_225
*80 FILLER_0_0_237
*81 FILLER_0_0_249
*82 FILLER_0_0_253
*83 FILLER_0_0_265
*84 FILLER_0_0_27
*85 FILLER_0_0_277
*86 FILLER_0_0_281
*87 FILLER_0_0_29
*88 FILLER_0_0_293
*89 FILLER_0_0_3
*90 FILLER_0_0_305
*91 FILLER_0_0_309
*92 FILLER_0_0_321
*93 FILLER_0_0_333
*94 FILLER_0_0_41
*95 FILLER_0_0_53
*96 FILLER_0_0_57
*97 FILLER_0_0_69
*98 FILLER_0_0_81
*99 FILLER_0_0_85
*100 FILLER_0_0_97
*101 FILLER_0_10_109
*102 FILLER_0_10_121
*103 FILLER_0_10_133
*104 FILLER_0_10_139
*105 FILLER_0_10_141
*106 FILLER_0_10_15
*107 FILLER_0_10_153
*108 FILLER_0_10_165
*109 FILLER_0_10_177
*110 FILLER_0_10_189
*111 FILLER_0_10_195
*112 FILLER_0_10_197
*113 FILLER_0_10_209
*114 FILLER_0_10_221
*115 FILLER_0_10_233
*116 FILLER_0_10_245
*117 FILLER_0_10_251
*118 FILLER_0_10_253
*119 FILLER_0_10_265
*120 FILLER_0_10_27
*121 FILLER_0_10_277
*122 FILLER_0_10_289
*123 FILLER_0_10_29
*124 FILLER_0_10_3
*125 FILLER_0_10_301
*126 FILLER_0_10_307
*127 FILLER_0_10_309
*128 FILLER_0_10_321
*129 FILLER_0_10_333
*130 FILLER_0_10_41
*131 FILLER_0_10_53
*132 FILLER_0_10_65
*133 FILLER_0_10_77
*134 FILLER_0_10_83
*135 FILLER_0_10_85
*136 FILLER_0_10_97
*137 FILLER_0_11_105
*138 FILLER_0_11_111
*139 FILLER_0_11_113
*140 FILLER_0_11_125
*141 FILLER_0_11_137
*142 FILLER_0_11_149
*143 FILLER_0_11_15
*144 FILLER_0_11_161
*145 FILLER_0_11_167
*146 FILLER_0_11_169
*147 FILLER_0_11_181
*148 FILLER_0_11_193
*149 FILLER_0_11_205
*150 FILLER_0_11_217
*151 FILLER_0_11_223
*152 FILLER_0_11_225
*153 FILLER_0_11_237
*154 FILLER_0_11_249
*155 FILLER_0_11_261
*156 FILLER_0_11_27
*157 FILLER_0_11_273
*158 FILLER_0_11_279
*159 FILLER_0_11_281
*160 FILLER_0_11_293
*161 FILLER_0_11_3
*162 FILLER_0_11_305
*163 FILLER_0_11_317
*164 FILLER_0_11_329
*165 FILLER_0_11_39
*166 FILLER_0_11_51
*167 FILLER_0_11_55
*168 FILLER_0_11_57
*169 FILLER_0_11_69
*170 FILLER_0_11_81
*171 FILLER_0_11_93
*172 FILLER_0_12_109
*173 FILLER_0_12_121
*174 FILLER_0_12_133
*175 FILLER_0_12_139
*176 FILLER_0_12_141
*177 FILLER_0_12_15
*178 FILLER_0_12_153
*179 FILLER_0_12_165
*180 FILLER_0_12_177
*181 FILLER_0_12_189
*182 FILLER_0_12_195
*183 FILLER_0_12_197
*184 FILLER_0_12_209
*185 FILLER_0_12_221
*186 FILLER_0_12_233
*187 FILLER_0_12_245
*188 FILLER_0_12_251
*189 FILLER_0_12_253
*190 FILLER_0_12_265
*191 FILLER_0_12_27
*192 FILLER_0_12_277
*193 FILLER_0_12_289
*194 FILLER_0_12_29
*195 FILLER_0_12_3
*196 FILLER_0_12_301
*197 FILLER_0_12_307
*198 FILLER_0_12_309
*199 FILLER_0_12_321
*200 FILLER_0_12_333
*201 FILLER_0_12_41
*202 FILLER_0_12_53
*203 FILLER_0_12_65
*204 FILLER_0_12_77
*205 FILLER_0_12_83
*206 FILLER_0_12_85
*207 FILLER_0_12_97
*208 FILLER_0_13_105
*209 FILLER_0_13_111
*210 FILLER_0_13_113
*211 FILLER_0_13_125
*212 FILLER_0_13_137
*213 FILLER_0_13_149
*214 FILLER_0_13_15
*215 FILLER_0_13_161
*216 FILLER_0_13_167
*217 FILLER_0_13_169
*218 FILLER_0_13_181
*219 FILLER_0_13_193
*220 FILLER_0_13_205
*221 FILLER_0_13_217
*222 FILLER_0_13_223
*223 FILLER_0_13_225
*224 FILLER_0_13_237
*225 FILLER_0_13_249
*226 FILLER_0_13_261
*227 FILLER_0_13_27
*228 FILLER_0_13_273
*229 FILLER_0_13_279
*230 FILLER_0_13_281
*231 FILLER_0_13_293
*232 FILLER_0_13_3
*233 FILLER_0_13_305
*234 FILLER_0_13_317
*235 FILLER_0_13_329
*236 FILLER_0_13_39
*237 FILLER_0_13_51
*238 FILLER_0_13_55
*239 FILLER_0_13_57
*240 FILLER_0_13_69
*241 FILLER_0_13_81
*242 FILLER_0_13_93
*243 FILLER_0_14_109
*244 FILLER_0_14_121
*245 FILLER_0_14_133
*246 FILLER_0_14_139
*247 FILLER_0_14_141
*248 FILLER_0_14_15
*249 FILLER_0_14_153
*250 FILLER_0_14_165
*251 FILLER_0_14_177
*252 FILLER_0_14_189
*253 FILLER_0_14_195
*254 FILLER_0_14_197
*255 FILLER_0_14_209
*256 FILLER_0_14_221
*257 FILLER_0_14_233
*258 FILLER_0_14_245
*259 FILLER_0_14_251
*260 FILLER_0_14_253
*261 FILLER_0_14_265
*262 FILLER_0_14_27
*263 FILLER_0_14_277
*264 FILLER_0_14_289
*265 FILLER_0_14_29
*266 FILLER_0_14_3
*267 FILLER_0_14_301
*268 FILLER_0_14_307
*269 FILLER_0_14_309
*270 FILLER_0_14_321
*271 FILLER_0_14_333
*272 FILLER_0_14_41
*273 FILLER_0_14_53
*274 FILLER_0_14_65
*275 FILLER_0_14_77
*276 FILLER_0_14_83
*277 FILLER_0_14_85
*278 FILLER_0_14_97
*279 FILLER_0_15_105
*280 FILLER_0_15_111
*281 FILLER_0_15_113
*282 FILLER_0_15_125
*283 FILLER_0_15_137
*284 FILLER_0_15_149
*285 FILLER_0_15_15
*286 FILLER_0_15_161
*287 FILLER_0_15_167
*288 FILLER_0_15_169
*289 FILLER_0_15_181
*290 FILLER_0_15_193
*291 FILLER_0_15_205
*292 FILLER_0_15_217
*293 FILLER_0_15_223
*294 FILLER_0_15_225
*295 FILLER_0_15_237
*296 FILLER_0_15_249
*297 FILLER_0_15_261
*298 FILLER_0_15_27
*299 FILLER_0_15_273
*300 FILLER_0_15_279
*301 FILLER_0_15_281
*302 FILLER_0_15_293
*303 FILLER_0_15_3
*304 FILLER_0_15_305
*305 FILLER_0_15_317
*306 FILLER_0_15_329
*307 FILLER_0_15_39
*308 FILLER_0_15_51
*309 FILLER_0_15_55
*310 FILLER_0_15_57
*311 FILLER_0_15_69
*312 FILLER_0_15_81
*313 FILLER_0_15_93
*314 FILLER_0_16_109
*315 FILLER_0_16_121
*316 FILLER_0_16_133
*317 FILLER_0_16_139
*318 FILLER_0_16_141
*319 FILLER_0_16_15
*320 FILLER_0_16_153
*321 FILLER_0_16_165
*322 FILLER_0_16_177
*323 FILLER_0_16_189
*324 FILLER_0_16_195
*325 FILLER_0_16_197
*326 FILLER_0_16_209
*327 FILLER_0_16_221
*328 FILLER_0_16_233
*329 FILLER_0_16_245
*330 FILLER_0_16_251
*331 FILLER_0_16_253
*332 FILLER_0_16_265
*333 FILLER_0_16_27
*334 FILLER_0_16_277
*335 FILLER_0_16_289
*336 FILLER_0_16_29
*337 FILLER_0_16_3
*338 FILLER_0_16_301
*339 FILLER_0_16_307
*340 FILLER_0_16_309
*341 FILLER_0_16_321
*342 FILLER_0_16_333
*343 FILLER_0_16_41
*344 FILLER_0_16_53
*345 FILLER_0_16_65
*346 FILLER_0_16_77
*347 FILLER_0_16_83
*348 FILLER_0_16_85
*349 FILLER_0_16_97
*350 FILLER_0_17_105
*351 FILLER_0_17_111
*352 FILLER_0_17_113
*353 FILLER_0_17_125
*354 FILLER_0_17_137
*355 FILLER_0_17_149
*356 FILLER_0_17_15
*357 FILLER_0_17_161
*358 FILLER_0_17_167
*359 FILLER_0_17_169
*360 FILLER_0_17_181
*361 FILLER_0_17_193
*362 FILLER_0_17_205
*363 FILLER_0_17_217
*364 FILLER_0_17_223
*365 FILLER_0_17_225
*366 FILLER_0_17_237
*367 FILLER_0_17_249
*368 FILLER_0_17_261
*369 FILLER_0_17_27
*370 FILLER_0_17_273
*371 FILLER_0_17_279
*372 FILLER_0_17_281
*373 FILLER_0_17_293
*374 FILLER_0_17_3
*375 FILLER_0_17_305
*376 FILLER_0_17_317
*377 FILLER_0_17_329
*378 FILLER_0_17_39
*379 FILLER_0_17_51
*380 FILLER_0_17_55
*381 FILLER_0_17_57
*382 FILLER_0_17_69
*383 FILLER_0_17_81
*384 FILLER_0_17_93
*385 FILLER_0_18_109
*386 FILLER_0_18_121
*387 FILLER_0_18_133
*388 FILLER_0_18_139
*389 FILLER_0_18_141
*390 FILLER_0_18_15
*391 FILLER_0_18_153
*392 FILLER_0_18_165
*393 FILLER_0_18_177
*394 FILLER_0_18_189
*395 FILLER_0_18_195
*396 FILLER_0_18_197
*397 FILLER_0_18_209
*398 FILLER_0_18_221
*399 FILLER_0_18_233
*400 FILLER_0_18_245
*401 FILLER_0_18_251
*402 FILLER_0_18_253
*403 FILLER_0_18_265
*404 FILLER_0_18_27
*405 FILLER_0_18_277
*406 FILLER_0_18_289
*407 FILLER_0_18_29
*408 FILLER_0_18_3
*409 FILLER_0_18_301
*410 FILLER_0_18_307
*411 FILLER_0_18_309
*412 FILLER_0_18_321
*413 FILLER_0_18_333
*414 FILLER_0_18_41
*415 FILLER_0_18_53
*416 FILLER_0_18_65
*417 FILLER_0_18_77
*418 FILLER_0_18_83
*419 FILLER_0_18_85
*420 FILLER_0_18_97
*421 FILLER_0_19_105
*422 FILLER_0_19_111
*423 FILLER_0_19_113
*424 FILLER_0_19_125
*425 FILLER_0_19_137
*426 FILLER_0_19_149
*427 FILLER_0_19_15
*428 FILLER_0_19_161
*429 FILLER_0_19_167
*430 FILLER_0_19_169
*431 FILLER_0_19_181
*432 FILLER_0_19_193
*433 FILLER_0_19_205
*434 FILLER_0_19_217
*435 FILLER_0_19_223
*436 FILLER_0_19_225
*437 FILLER_0_19_237
*438 FILLER_0_19_249
*439 FILLER_0_19_261
*440 FILLER_0_19_27
*441 FILLER_0_19_273
*442 FILLER_0_19_279
*443 FILLER_0_19_281
*444 FILLER_0_19_293
*445 FILLER_0_19_3
*446 FILLER_0_19_305
*447 FILLER_0_19_317
*448 FILLER_0_19_329
*449 FILLER_0_19_39
*450 FILLER_0_19_51
*451 FILLER_0_19_55
*452 FILLER_0_19_57
*453 FILLER_0_19_69
*454 FILLER_0_19_81
*455 FILLER_0_19_93
*456 FILLER_0_1_105
*457 FILLER_0_1_111
*458 FILLER_0_1_113
*459 FILLER_0_1_125
*460 FILLER_0_1_137
*461 FILLER_0_1_149
*462 FILLER_0_1_15
*463 FILLER_0_1_161
*464 FILLER_0_1_167
*465 FILLER_0_1_169
*466 FILLER_0_1_181
*467 FILLER_0_1_193
*468 FILLER_0_1_205
*469 FILLER_0_1_217
*470 FILLER_0_1_223
*471 FILLER_0_1_225
*472 FILLER_0_1_237
*473 FILLER_0_1_249
*474 FILLER_0_1_261
*475 FILLER_0_1_27
*476 FILLER_0_1_273
*477 FILLER_0_1_279
*478 FILLER_0_1_281
*479 FILLER_0_1_293
*480 FILLER_0_1_3
*481 FILLER_0_1_305
*482 FILLER_0_1_317
*483 FILLER_0_1_329
*484 FILLER_0_1_39
*485 FILLER_0_1_51
*486 FILLER_0_1_55
*487 FILLER_0_1_57
*488 FILLER_0_1_69
*489 FILLER_0_1_81
*490 FILLER_0_1_93
*491 FILLER_0_20_109
*492 FILLER_0_20_121
*493 FILLER_0_20_133
*494 FILLER_0_20_139
*495 FILLER_0_20_141
*496 FILLER_0_20_15
*497 FILLER_0_20_153
*498 FILLER_0_20_165
*499 FILLER_0_20_177
*500 FILLER_0_20_189
*501 FILLER_0_20_195
*502 FILLER_0_20_197
*503 FILLER_0_20_209
*504 FILLER_0_20_221
*505 FILLER_0_20_233
*506 FILLER_0_20_245
*507 FILLER_0_20_251
*508 FILLER_0_20_253
*509 FILLER_0_20_265
*510 FILLER_0_20_27
*511 FILLER_0_20_277
*512 FILLER_0_20_289
*513 FILLER_0_20_29
*514 FILLER_0_20_3
*515 FILLER_0_20_301
*516 FILLER_0_20_307
*517 FILLER_0_20_309
*518 FILLER_0_20_321
*519 FILLER_0_20_333
*520 FILLER_0_20_41
*521 FILLER_0_20_53
*522 FILLER_0_20_65
*523 FILLER_0_20_77
*524 FILLER_0_20_83
*525 FILLER_0_20_85
*526 FILLER_0_20_97
*527 FILLER_0_21_105
*528 FILLER_0_21_111
*529 FILLER_0_21_113
*530 FILLER_0_21_125
*531 FILLER_0_21_137
*532 FILLER_0_21_149
*533 FILLER_0_21_15
*534 FILLER_0_21_161
*535 FILLER_0_21_167
*536 FILLER_0_21_169
*537 FILLER_0_21_181
*538 FILLER_0_21_193
*539 FILLER_0_21_205
*540 FILLER_0_21_217
*541 FILLER_0_21_223
*542 FILLER_0_21_225
*543 FILLER_0_21_237
*544 FILLER_0_21_249
*545 FILLER_0_21_261
*546 FILLER_0_21_27
*547 FILLER_0_21_273
*548 FILLER_0_21_279
*549 FILLER_0_21_281
*550 FILLER_0_21_293
*551 FILLER_0_21_3
*552 FILLER_0_21_305
*553 FILLER_0_21_317
*554 FILLER_0_21_329
*555 FILLER_0_21_39
*556 FILLER_0_21_51
*557 FILLER_0_21_55
*558 FILLER_0_21_57
*559 FILLER_0_21_69
*560 FILLER_0_21_81
*561 FILLER_0_21_93
*562 FILLER_0_22_109
*563 FILLER_0_22_121
*564 FILLER_0_22_133
*565 FILLER_0_22_139
*566 FILLER_0_22_141
*567 FILLER_0_22_15
*568 FILLER_0_22_153
*569 FILLER_0_22_165
*570 FILLER_0_22_177
*571 FILLER_0_22_189
*572 FILLER_0_22_195
*573 FILLER_0_22_197
*574 FILLER_0_22_209
*575 FILLER_0_22_221
*576 FILLER_0_22_233
*577 FILLER_0_22_245
*578 FILLER_0_22_251
*579 FILLER_0_22_253
*580 FILLER_0_22_265
*581 FILLER_0_22_27
*582 FILLER_0_22_277
*583 FILLER_0_22_289
*584 FILLER_0_22_29
*585 FILLER_0_22_3
*586 FILLER_0_22_301
*587 FILLER_0_22_307
*588 FILLER_0_22_309
*589 FILLER_0_22_321
*590 FILLER_0_22_333
*591 FILLER_0_22_41
*592 FILLER_0_22_53
*593 FILLER_0_22_65
*594 FILLER_0_22_77
*595 FILLER_0_22_83
*596 FILLER_0_22_85
*597 FILLER_0_22_97
*598 FILLER_0_23_105
*599 FILLER_0_23_111
*600 FILLER_0_23_113
*601 FILLER_0_23_125
*602 FILLER_0_23_137
*603 FILLER_0_23_149
*604 FILLER_0_23_15
*605 FILLER_0_23_161
*606 FILLER_0_23_167
*607 FILLER_0_23_169
*608 FILLER_0_23_181
*609 FILLER_0_23_193
*610 FILLER_0_23_205
*611 FILLER_0_23_217
*612 FILLER_0_23_223
*613 FILLER_0_23_225
*614 FILLER_0_23_237
*615 FILLER_0_23_249
*616 FILLER_0_23_261
*617 FILLER_0_23_27
*618 FILLER_0_23_273
*619 FILLER_0_23_279
*620 FILLER_0_23_281
*621 FILLER_0_23_293
*622 FILLER_0_23_3
*623 FILLER_0_23_305
*624 FILLER_0_23_317
*625 FILLER_0_23_329
*626 FILLER_0_23_39
*627 FILLER_0_23_51
*628 FILLER_0_23_55
*629 FILLER_0_23_57
*630 FILLER_0_23_69
*631 FILLER_0_23_81
*632 FILLER_0_23_93
*633 FILLER_0_24_109
*634 FILLER_0_24_121
*635 FILLER_0_24_133
*636 FILLER_0_24_139
*637 FILLER_0_24_141
*638 FILLER_0_24_15
*639 FILLER_0_24_153
*640 FILLER_0_24_165
*641 FILLER_0_24_177
*642 FILLER_0_24_189
*643 FILLER_0_24_195
*644 FILLER_0_24_197
*645 FILLER_0_24_209
*646 FILLER_0_24_221
*647 FILLER_0_24_233
*648 FILLER_0_24_245
*649 FILLER_0_24_251
*650 FILLER_0_24_253
*651 FILLER_0_24_265
*652 FILLER_0_24_27
*653 FILLER_0_24_277
*654 FILLER_0_24_289
*655 FILLER_0_24_29
*656 FILLER_0_24_3
*657 FILLER_0_24_301
*658 FILLER_0_24_307
*659 FILLER_0_24_309
*660 FILLER_0_24_321
*661 FILLER_0_24_333
*662 FILLER_0_24_41
*663 FILLER_0_24_53
*664 FILLER_0_24_65
*665 FILLER_0_24_77
*666 FILLER_0_24_83
*667 FILLER_0_24_85
*668 FILLER_0_24_97
*669 FILLER_0_25_105
*670 FILLER_0_25_111
*671 FILLER_0_25_113
*672 FILLER_0_25_125
*673 FILLER_0_25_137
*674 FILLER_0_25_149
*675 FILLER_0_25_15
*676 FILLER_0_25_161
*677 FILLER_0_25_167
*678 FILLER_0_25_169
*679 FILLER_0_25_181
*680 FILLER_0_25_193
*681 FILLER_0_25_205
*682 FILLER_0_25_217
*683 FILLER_0_25_223
*684 FILLER_0_25_225
*685 FILLER_0_25_237
*686 FILLER_0_25_249
*687 FILLER_0_25_261
*688 FILLER_0_25_27
*689 FILLER_0_25_273
*690 FILLER_0_25_279
*691 FILLER_0_25_281
*692 FILLER_0_25_293
*693 FILLER_0_25_3
*694 FILLER_0_25_305
*695 FILLER_0_25_317
*696 FILLER_0_25_329
*697 FILLER_0_25_39
*698 FILLER_0_25_51
*699 FILLER_0_25_55
*700 FILLER_0_25_57
*701 FILLER_0_25_69
*702 FILLER_0_25_81
*703 FILLER_0_25_93
*704 FILLER_0_26_109
*705 FILLER_0_26_121
*706 FILLER_0_26_133
*707 FILLER_0_26_139
*708 FILLER_0_26_141
*709 FILLER_0_26_15
*710 FILLER_0_26_153
*711 FILLER_0_26_165
*712 FILLER_0_26_177
*713 FILLER_0_26_189
*714 FILLER_0_26_195
*715 FILLER_0_26_197
*716 FILLER_0_26_209
*717 FILLER_0_26_221
*718 FILLER_0_26_233
*719 FILLER_0_26_245
*720 FILLER_0_26_251
*721 FILLER_0_26_253
*722 FILLER_0_26_265
*723 FILLER_0_26_27
*724 FILLER_0_26_277
*725 FILLER_0_26_289
*726 FILLER_0_26_29
*727 FILLER_0_26_3
*728 FILLER_0_26_301
*729 FILLER_0_26_307
*730 FILLER_0_26_309
*731 FILLER_0_26_321
*732 FILLER_0_26_333
*733 FILLER_0_26_41
*734 FILLER_0_26_53
*735 FILLER_0_26_65
*736 FILLER_0_26_77
*737 FILLER_0_26_83
*738 FILLER_0_26_85
*739 FILLER_0_26_97
*740 FILLER_0_27_105
*741 FILLER_0_27_111
*742 FILLER_0_27_113
*743 FILLER_0_27_125
*744 FILLER_0_27_137
*745 FILLER_0_27_149
*746 FILLER_0_27_15
*747 FILLER_0_27_161
*748 FILLER_0_27_167
*749 FILLER_0_27_169
*750 FILLER_0_27_181
*751 FILLER_0_27_193
*752 FILLER_0_27_205
*753 FILLER_0_27_217
*754 FILLER_0_27_223
*755 FILLER_0_27_225
*756 FILLER_0_27_237
*757 FILLER_0_27_249
*758 FILLER_0_27_261
*759 FILLER_0_27_27
*760 FILLER_0_27_273
*761 FILLER_0_27_279
*762 FILLER_0_27_281
*763 FILLER_0_27_293
*764 FILLER_0_27_3
*765 FILLER_0_27_305
*766 FILLER_0_27_317
*767 FILLER_0_27_329
*768 FILLER_0_27_39
*769 FILLER_0_27_51
*770 FILLER_0_27_55
*771 FILLER_0_27_57
*772 FILLER_0_27_69
*773 FILLER_0_27_81
*774 FILLER_0_27_93
*775 FILLER_0_28_109
*776 FILLER_0_28_121
*777 FILLER_0_28_133
*778 FILLER_0_28_139
*779 FILLER_0_28_141
*780 FILLER_0_28_15
*781 FILLER_0_28_153
*782 FILLER_0_28_165
*783 FILLER_0_28_177
*784 FILLER_0_28_189
*785 FILLER_0_28_195
*786 FILLER_0_28_197
*787 FILLER_0_28_209
*788 FILLER_0_28_221
*789 FILLER_0_28_233
*790 FILLER_0_28_245
*791 FILLER_0_28_251
*792 FILLER_0_28_253
*793 FILLER_0_28_265
*794 FILLER_0_28_27
*795 FILLER_0_28_277
*796 FILLER_0_28_289
*797 FILLER_0_28_29
*798 FILLER_0_28_3
*799 FILLER_0_28_301
*800 FILLER_0_28_307
*801 FILLER_0_28_309
*802 FILLER_0_28_321
*803 FILLER_0_28_333
*804 FILLER_0_28_41
*805 FILLER_0_28_53
*806 FILLER_0_28_65
*807 FILLER_0_28_77
*808 FILLER_0_28_83
*809 FILLER_0_28_85
*810 FILLER_0_28_97
*811 FILLER_0_29_105
*812 FILLER_0_29_111
*813 FILLER_0_29_113
*814 FILLER_0_29_125
*815 FILLER_0_29_137
*816 FILLER_0_29_149
*817 FILLER_0_29_15
*818 FILLER_0_29_161
*819 FILLER_0_29_167
*820 FILLER_0_29_169
*821 FILLER_0_29_181
*822 FILLER_0_29_193
*823 FILLER_0_29_205
*824 FILLER_0_29_217
*825 FILLER_0_29_223
*826 FILLER_0_29_225
*827 FILLER_0_29_237
*828 FILLER_0_29_249
*829 FILLER_0_29_261
*830 FILLER_0_29_27
*831 FILLER_0_29_273
*832 FILLER_0_29_279
*833 FILLER_0_29_281
*834 FILLER_0_29_293
*835 FILLER_0_29_3
*836 FILLER_0_29_305
*837 FILLER_0_29_317
*838 FILLER_0_29_329
*839 FILLER_0_29_39
*840 FILLER_0_29_51
*841 FILLER_0_29_55
*842 FILLER_0_29_57
*843 FILLER_0_29_69
*844 FILLER_0_29_81
*845 FILLER_0_29_93
*846 FILLER_0_2_109
*847 FILLER_0_2_121
*848 FILLER_0_2_133
*849 FILLER_0_2_139
*850 FILLER_0_2_141
*851 FILLER_0_2_15
*852 FILLER_0_2_153
*853 FILLER_0_2_165
*854 FILLER_0_2_177
*855 FILLER_0_2_189
*856 FILLER_0_2_195
*857 FILLER_0_2_197
*858 FILLER_0_2_209
*859 FILLER_0_2_221
*860 FILLER_0_2_233
*861 FILLER_0_2_245
*862 FILLER_0_2_251
*863 FILLER_0_2_253
*864 FILLER_0_2_265
*865 FILLER_0_2_27
*866 FILLER_0_2_277
*867 FILLER_0_2_289
*868 FILLER_0_2_29
*869 FILLER_0_2_3
*870 FILLER_0_2_301
*871 FILLER_0_2_307
*872 FILLER_0_2_309
*873 FILLER_0_2_321
*874 FILLER_0_2_333
*875 FILLER_0_2_41
*876 FILLER_0_2_53
*877 FILLER_0_2_65
*878 FILLER_0_2_77
*879 FILLER_0_2_83
*880 FILLER_0_2_85
*881 FILLER_0_2_97
*882 FILLER_0_30_109
*883 FILLER_0_30_121
*884 FILLER_0_30_133
*885 FILLER_0_30_139
*886 FILLER_0_30_141
*887 FILLER_0_30_15
*888 FILLER_0_30_153
*889 FILLER_0_30_165
*890 FILLER_0_30_177
*891 FILLER_0_30_189
*892 FILLER_0_30_195
*893 FILLER_0_30_197
*894 FILLER_0_30_209
*895 FILLER_0_30_221
*896 FILLER_0_30_233
*897 FILLER_0_30_245
*898 FILLER_0_30_251
*899 FILLER_0_30_253
*900 FILLER_0_30_265
*901 FILLER_0_30_27
*902 FILLER_0_30_277
*903 FILLER_0_30_289
*904 FILLER_0_30_29
*905 FILLER_0_30_3
*906 FILLER_0_30_301
*907 FILLER_0_30_307
*908 FILLER_0_30_309
*909 FILLER_0_30_321
*910 FILLER_0_30_333
*911 FILLER_0_30_41
*912 FILLER_0_30_53
*913 FILLER_0_30_65
*914 FILLER_0_30_77
*915 FILLER_0_30_83
*916 FILLER_0_30_85
*917 FILLER_0_30_97
*918 FILLER_0_31_105
*919 FILLER_0_31_111
*920 FILLER_0_31_113
*921 FILLER_0_31_125
*922 FILLER_0_31_137
*923 FILLER_0_31_149
*924 FILLER_0_31_15
*925 FILLER_0_31_161
*926 FILLER_0_31_167
*927 FILLER_0_31_169
*928 FILLER_0_31_181
*929 FILLER_0_31_193
*930 FILLER_0_31_205
*931 FILLER_0_31_217
*932 FILLER_0_31_223
*933 FILLER_0_31_225
*934 FILLER_0_31_237
*935 FILLER_0_31_249
*936 FILLER_0_31_261
*937 FILLER_0_31_27
*938 FILLER_0_31_273
*939 FILLER_0_31_279
*940 FILLER_0_31_281
*941 FILLER_0_31_293
*942 FILLER_0_31_3
*943 FILLER_0_31_305
*944 FILLER_0_31_317
*945 FILLER_0_31_329
*946 FILLER_0_31_39
*947 FILLER_0_31_51
*948 FILLER_0_31_55
*949 FILLER_0_31_57
*950 FILLER_0_31_69
*951 FILLER_0_31_81
*952 FILLER_0_31_93
*953 FILLER_0_32_109
*954 FILLER_0_32_121
*955 FILLER_0_32_133
*956 FILLER_0_32_139
*957 FILLER_0_32_141
*958 FILLER_0_32_15
*959 FILLER_0_32_153
*960 FILLER_0_32_165
*961 FILLER_0_32_177
*962 FILLER_0_32_189
*963 FILLER_0_32_195
*964 FILLER_0_32_197
*965 FILLER_0_32_209
*966 FILLER_0_32_221
*967 FILLER_0_32_233
*968 FILLER_0_32_245
*969 FILLER_0_32_251
*970 FILLER_0_32_253
*971 FILLER_0_32_265
*972 FILLER_0_32_27
*973 FILLER_0_32_277
*974 FILLER_0_32_289
*975 FILLER_0_32_29
*976 FILLER_0_32_3
*977 FILLER_0_32_301
*978 FILLER_0_32_307
*979 FILLER_0_32_309
*980 FILLER_0_32_321
*981 FILLER_0_32_333
*982 FILLER_0_32_41
*983 FILLER_0_32_53
*984 FILLER_0_32_65
*985 FILLER_0_32_77
*986 FILLER_0_32_83
*987 FILLER_0_32_85
*988 FILLER_0_32_97
*989 FILLER_0_33_105
*990 FILLER_0_33_111
*991 FILLER_0_33_113
*992 FILLER_0_33_125
*993 FILLER_0_33_137
*994 FILLER_0_33_149
*995 FILLER_0_33_15
*996 FILLER_0_33_161
*997 FILLER_0_33_167
*998 FILLER_0_33_169
*999 FILLER_0_33_181
*1000 FILLER_0_33_193
*1001 FILLER_0_33_205
*1002 FILLER_0_33_217
*1003 FILLER_0_33_223
*1004 FILLER_0_33_225
*1005 FILLER_0_33_237
*1006 FILLER_0_33_249
*1007 FILLER_0_33_261
*1008 FILLER_0_33_27
*1009 FILLER_0_33_273
*1010 FILLER_0_33_279
*1011 FILLER_0_33_281
*1012 FILLER_0_33_293
*1013 FILLER_0_33_3
*1014 FILLER_0_33_305
*1015 FILLER_0_33_317
*1016 FILLER_0_33_329
*1017 FILLER_0_33_39
*1018 FILLER_0_33_51
*1019 FILLER_0_33_55
*1020 FILLER_0_33_57
*1021 FILLER_0_33_69
*1022 FILLER_0_33_81
*1023 FILLER_0_33_93
*1024 FILLER_0_34_109
*1025 FILLER_0_34_121
*1026 FILLER_0_34_133
*1027 FILLER_0_34_139
*1028 FILLER_0_34_141
*1029 FILLER_0_34_15
*1030 FILLER_0_34_153
*1031 FILLER_0_34_165
*1032 FILLER_0_34_177
*1033 FILLER_0_34_189
*1034 FILLER_0_34_195
*1035 FILLER_0_34_197
*1036 FILLER_0_34_209
*1037 FILLER_0_34_221
*1038 FILLER_0_34_233
*1039 FILLER_0_34_245
*1040 FILLER_0_34_251
*1041 FILLER_0_34_253
*1042 FILLER_0_34_265
*1043 FILLER_0_34_27
*1044 FILLER_0_34_277
*1045 FILLER_0_34_289
*1046 FILLER_0_34_29
*1047 FILLER_0_34_3
*1048 FILLER_0_34_301
*1049 FILLER_0_34_307
*1050 FILLER_0_34_309
*1051 FILLER_0_34_321
*1052 FILLER_0_34_333
*1053 FILLER_0_34_41
*1054 FILLER_0_34_53
*1055 FILLER_0_34_65
*1056 FILLER_0_34_77
*1057 FILLER_0_34_83
*1058 FILLER_0_34_85
*1059 FILLER_0_34_97
*1060 FILLER_0_35_105
*1061 FILLER_0_35_111
*1062 FILLER_0_35_113
*1063 FILLER_0_35_125
*1064 FILLER_0_35_137
*1065 FILLER_0_35_149
*1066 FILLER_0_35_15
*1067 FILLER_0_35_161
*1068 FILLER_0_35_167
*1069 FILLER_0_35_169
*1070 FILLER_0_35_181
*1071 FILLER_0_35_193
*1072 FILLER_0_35_205
*1073 FILLER_0_35_217
*1074 FILLER_0_35_223
*1075 FILLER_0_35_225
*1076 FILLER_0_35_237
*1077 FILLER_0_35_249
*1078 FILLER_0_35_261
*1079 FILLER_0_35_27
*1080 FILLER_0_35_273
*1081 FILLER_0_35_279
*1082 FILLER_0_35_281
*1083 FILLER_0_35_293
*1084 FILLER_0_35_3
*1085 FILLER_0_35_305
*1086 FILLER_0_35_317
*1087 FILLER_0_35_329
*1088 FILLER_0_35_39
*1089 FILLER_0_35_51
*1090 FILLER_0_35_55
*1091 FILLER_0_35_57
*1092 FILLER_0_35_69
*1093 FILLER_0_35_81
*1094 FILLER_0_35_93
*1095 FILLER_0_36_109
*1096 FILLER_0_36_121
*1097 FILLER_0_36_133
*1098 FILLER_0_36_139
*1099 FILLER_0_36_141
*1100 FILLER_0_36_15
*1101 FILLER_0_36_153
*1102 FILLER_0_36_165
*1103 FILLER_0_36_177
*1104 FILLER_0_36_189
*1105 FILLER_0_36_195
*1106 FILLER_0_36_197
*1107 FILLER_0_36_209
*1108 FILLER_0_36_221
*1109 FILLER_0_36_231
*1110 FILLER_0_36_238
*1111 FILLER_0_36_250
*1112 FILLER_0_36_253
*1113 FILLER_0_36_265
*1114 FILLER_0_36_27
*1115 FILLER_0_36_277
*1116 FILLER_0_36_289
*1117 FILLER_0_36_29
*1118 FILLER_0_36_3
*1119 FILLER_0_36_301
*1120 FILLER_0_36_307
*1121 FILLER_0_36_309
*1122 FILLER_0_36_321
*1123 FILLER_0_36_333
*1124 FILLER_0_36_41
*1125 FILLER_0_36_53
*1126 FILLER_0_36_65
*1127 FILLER_0_36_77
*1128 FILLER_0_36_83
*1129 FILLER_0_36_85
*1130 FILLER_0_36_97
*1131 FILLER_0_37_105
*1132 FILLER_0_37_111
*1133 FILLER_0_37_113
*1134 FILLER_0_37_125
*1135 FILLER_0_37_137
*1136 FILLER_0_37_149
*1137 FILLER_0_37_15
*1138 FILLER_0_37_161
*1139 FILLER_0_37_167
*1140 FILLER_0_37_169
*1141 FILLER_0_37_181
*1142 FILLER_0_37_193
*1143 FILLER_0_37_201
*1144 FILLER_0_37_206
*1145 FILLER_0_37_216
*1146 FILLER_0_37_250
*1147 FILLER_0_37_255
*1148 FILLER_0_37_267
*1149 FILLER_0_37_27
*1150 FILLER_0_37_279
*1151 FILLER_0_37_281
*1152 FILLER_0_37_293
*1153 FILLER_0_37_3
*1154 FILLER_0_37_305
*1155 FILLER_0_37_317
*1156 FILLER_0_37_329
*1157 FILLER_0_37_39
*1158 FILLER_0_37_51
*1159 FILLER_0_37_55
*1160 FILLER_0_37_57
*1161 FILLER_0_37_69
*1162 FILLER_0_37_81
*1163 FILLER_0_37_93
*1164 FILLER_0_38_10
*1165 FILLER_0_38_102
*1166 FILLER_0_38_106
*1167 FILLER_0_38_110
*1168 FILLER_0_38_113
*1169 FILLER_0_38_118
*1170 FILLER_0_38_122
*1171 FILLER_0_38_126
*1172 FILLER_0_38_138
*1173 FILLER_0_38_14
*1174 FILLER_0_38_141
*1175 FILLER_0_38_153
*1176 FILLER_0_38_165
*1177 FILLER_0_38_169
*1178 FILLER_0_38_18
*1179 FILLER_0_38_181
*1180 FILLER_0_38_187
*1181 FILLER_0_38_218
*1182 FILLER_0_38_22
*1183 FILLER_0_38_223
*1184 FILLER_0_38_265
*1185 FILLER_0_38_279
*1186 FILLER_0_38_295
*1187 FILLER_0_38_302
*1188 FILLER_0_38_312
*1189 FILLER_0_38_318
*1190 FILLER_0_38_32
*1191 FILLER_0_38_330
*1192 FILLER_0_38_334
*1193 FILLER_0_38_38
*1194 FILLER_0_38_42
*1195 FILLER_0_38_46
*1196 FILLER_0_38_50
*1197 FILLER_0_38_54
*1198 FILLER_0_38_57
*1199 FILLER_0_38_6
*1200 FILLER_0_38_62
*1201 FILLER_0_38_66
*1202 FILLER_0_38_70
*1203 FILLER_0_38_74
*1204 FILLER_0_38_78
*1205 FILLER_0_38_88
*1206 FILLER_0_38_94
*1207 FILLER_0_38_98
*1208 FILLER_0_3_105
*1209 FILLER_0_3_111
*1210 FILLER_0_3_113
*1211 FILLER_0_3_125
*1212 FILLER_0_3_137
*1213 FILLER_0_3_149
*1214 FILLER_0_3_15
*1215 FILLER_0_3_161
*1216 FILLER_0_3_167
*1217 FILLER_0_3_169
*1218 FILLER_0_3_181
*1219 FILLER_0_3_193
*1220 FILLER_0_3_205
*1221 FILLER_0_3_217
*1222 FILLER_0_3_223
*1223 FILLER_0_3_225
*1224 FILLER_0_3_237
*1225 FILLER_0_3_249
*1226 FILLER_0_3_261
*1227 FILLER_0_3_27
*1228 FILLER_0_3_273
*1229 FILLER_0_3_279
*1230 FILLER_0_3_281
*1231 FILLER_0_3_293
*1232 FILLER_0_3_3
*1233 FILLER_0_3_305
*1234 FILLER_0_3_317
*1235 FILLER_0_3_329
*1236 FILLER_0_3_39
*1237 FILLER_0_3_51
*1238 FILLER_0_3_55
*1239 FILLER_0_3_57
*1240 FILLER_0_3_69
*1241 FILLER_0_3_81
*1242 FILLER_0_3_93
*1243 FILLER_0_4_109
*1244 FILLER_0_4_121
*1245 FILLER_0_4_133
*1246 FILLER_0_4_139
*1247 FILLER_0_4_141
*1248 FILLER_0_4_15
*1249 FILLER_0_4_153
*1250 FILLER_0_4_165
*1251 FILLER_0_4_177
*1252 FILLER_0_4_189
*1253 FILLER_0_4_195
*1254 FILLER_0_4_197
*1255 FILLER_0_4_209
*1256 FILLER_0_4_221
*1257 FILLER_0_4_233
*1258 FILLER_0_4_245
*1259 FILLER_0_4_251
*1260 FILLER_0_4_253
*1261 FILLER_0_4_265
*1262 FILLER_0_4_27
*1263 FILLER_0_4_277
*1264 FILLER_0_4_289
*1265 FILLER_0_4_29
*1266 FILLER_0_4_3
*1267 FILLER_0_4_301
*1268 FILLER_0_4_307
*1269 FILLER_0_4_309
*1270 FILLER_0_4_321
*1271 FILLER_0_4_333
*1272 FILLER_0_4_41
*1273 FILLER_0_4_53
*1274 FILLER_0_4_65
*1275 FILLER_0_4_77
*1276 FILLER_0_4_83
*1277 FILLER_0_4_85
*1278 FILLER_0_4_97
*1279 FILLER_0_5_105
*1280 FILLER_0_5_111
*1281 FILLER_0_5_113
*1282 FILLER_0_5_125
*1283 FILLER_0_5_137
*1284 FILLER_0_5_149
*1285 FILLER_0_5_15
*1286 FILLER_0_5_161
*1287 FILLER_0_5_167
*1288 FILLER_0_5_169
*1289 FILLER_0_5_181
*1290 FILLER_0_5_193
*1291 FILLER_0_5_205
*1292 FILLER_0_5_217
*1293 FILLER_0_5_223
*1294 FILLER_0_5_225
*1295 FILLER_0_5_237
*1296 FILLER_0_5_249
*1297 FILLER_0_5_261
*1298 FILLER_0_5_27
*1299 FILLER_0_5_273
*1300 FILLER_0_5_279
*1301 FILLER_0_5_281
*1302 FILLER_0_5_293
*1303 FILLER_0_5_3
*1304 FILLER_0_5_305
*1305 FILLER_0_5_317
*1306 FILLER_0_5_329
*1307 FILLER_0_5_39
*1308 FILLER_0_5_51
*1309 FILLER_0_5_55
*1310 FILLER_0_5_57
*1311 FILLER_0_5_69
*1312 FILLER_0_5_81
*1313 FILLER_0_5_93
*1314 FILLER_0_6_109
*1315 FILLER_0_6_121
*1316 FILLER_0_6_133
*1317 FILLER_0_6_139
*1318 FILLER_0_6_141
*1319 FILLER_0_6_15
*1320 FILLER_0_6_153
*1321 FILLER_0_6_165
*1322 FILLER_0_6_177
*1323 FILLER_0_6_189
*1324 FILLER_0_6_195
*1325 FILLER_0_6_197
*1326 FILLER_0_6_209
*1327 FILLER_0_6_221
*1328 FILLER_0_6_233
*1329 FILLER_0_6_245
*1330 FILLER_0_6_251
*1331 FILLER_0_6_253
*1332 FILLER_0_6_265
*1333 FILLER_0_6_27
*1334 FILLER_0_6_277
*1335 FILLER_0_6_289
*1336 FILLER_0_6_29
*1337 FILLER_0_6_3
*1338 FILLER_0_6_301
*1339 FILLER_0_6_307
*1340 FILLER_0_6_309
*1341 FILLER_0_6_321
*1342 FILLER_0_6_333
*1343 FILLER_0_6_41
*1344 FILLER_0_6_53
*1345 FILLER_0_6_65
*1346 FILLER_0_6_77
*1347 FILLER_0_6_83
*1348 FILLER_0_6_85
*1349 FILLER_0_6_97
*1350 FILLER_0_7_105
*1351 FILLER_0_7_111
*1352 FILLER_0_7_113
*1353 FILLER_0_7_125
*1354 FILLER_0_7_137
*1355 FILLER_0_7_149
*1356 FILLER_0_7_15
*1357 FILLER_0_7_161
*1358 FILLER_0_7_167
*1359 FILLER_0_7_169
*1360 FILLER_0_7_181
*1361 FILLER_0_7_193
*1362 FILLER_0_7_205
*1363 FILLER_0_7_217
*1364 FILLER_0_7_223
*1365 FILLER_0_7_225
*1366 FILLER_0_7_237
*1367 FILLER_0_7_249
*1368 FILLER_0_7_261
*1369 FILLER_0_7_27
*1370 FILLER_0_7_273
*1371 FILLER_0_7_279
*1372 FILLER_0_7_281
*1373 FILLER_0_7_293
*1374 FILLER_0_7_3
*1375 FILLER_0_7_305
*1376 FILLER_0_7_317
*1377 FILLER_0_7_329
*1378 FILLER_0_7_39
*1379 FILLER_0_7_51
*1380 FILLER_0_7_55
*1381 FILLER_0_7_57
*1382 FILLER_0_7_69
*1383 FILLER_0_7_81
*1384 FILLER_0_7_93
*1385 FILLER_0_8_109
*1386 FILLER_0_8_121
*1387 FILLER_0_8_133
*1388 FILLER_0_8_139
*1389 FILLER_0_8_141
*1390 FILLER_0_8_15
*1391 FILLER_0_8_153
*1392 FILLER_0_8_165
*1393 FILLER_0_8_177
*1394 FILLER_0_8_189
*1395 FILLER_0_8_195
*1396 FILLER_0_8_197
*1397 FILLER_0_8_209
*1398 FILLER_0_8_221
*1399 FILLER_0_8_233
*1400 FILLER_0_8_245
*1401 FILLER_0_8_251
*1402 FILLER_0_8_253
*1403 FILLER_0_8_265
*1404 FILLER_0_8_27
*1405 FILLER_0_8_277
*1406 FILLER_0_8_289
*1407 FILLER_0_8_29
*1408 FILLER_0_8_3
*1409 FILLER_0_8_301
*1410 FILLER_0_8_307
*1411 FILLER_0_8_309
*1412 FILLER_0_8_321
*1413 FILLER_0_8_333
*1414 FILLER_0_8_41
*1415 FILLER_0_8_53
*1416 FILLER_0_8_65
*1417 FILLER_0_8_77
*1418 FILLER_0_8_83
*1419 FILLER_0_8_85
*1420 FILLER_0_8_97
*1421 FILLER_0_9_105
*1422 FILLER_0_9_111
*1423 FILLER_0_9_113
*1424 FILLER_0_9_125
*1425 FILLER_0_9_137
*1426 FILLER_0_9_149
*1427 FILLER_0_9_15
*1428 FILLER_0_9_161
*1429 FILLER_0_9_167
*1430 FILLER_0_9_169
*1431 FILLER_0_9_181
*1432 FILLER_0_9_193
*1433 FILLER_0_9_205
*1434 FILLER_0_9_217
*1435 FILLER_0_9_223
*1436 FILLER_0_9_225
*1437 FILLER_0_9_237
*1438 FILLER_0_9_249
*1439 FILLER_0_9_261
*1440 FILLER_0_9_27
*1441 FILLER_0_9_273
*1442 FILLER_0_9_279
*1443 FILLER_0_9_281
*1444 FILLER_0_9_293
*1445 FILLER_0_9_3
*1446 FILLER_0_9_305
*1447 FILLER_0_9_317
*1448 FILLER_0_9_329
*1449 FILLER_0_9_39
*1450 FILLER_0_9_51
*1451 FILLER_0_9_55
*1452 FILLER_0_9_57
*1453 FILLER_0_9_69
*1454 FILLER_0_9_81
*1455 FILLER_0_9_93
*1456 PHY_EDGE_ROW_0_Left_39
*1457 PHY_EDGE_ROW_0_Right_0
*1458 PHY_EDGE_ROW_10_Left_49
*1459 PHY_EDGE_ROW_10_Right_10
*1460 PHY_EDGE_ROW_11_Left_50
*1461 PHY_EDGE_ROW_11_Right_11