*SPEF "ieee 1481-1999"
*DESIGN "tt_um_8bit_cpu"
*DATE "03:16:22 Saturday April 13, 2024"
*VENDOR "The OpenROAD Project"
*PROGRAM "OpenROAD"
*VERSION "0889970d1790a2617e69f253221b8bd7626e51dc"
*DESIGN_FLOW "NAME_SCOPE LOCAL" "PIN_CAP NONE"
*DIVIDER /
*DELIMITER :
*BUS_DELIMITER []
*T_UNIT 1 NS
*C_UNIT 1 PF
*R_UNIT 1 OHM
*L_UNIT 1 HENRY

*NAME_MAP
*3 clk
*4 ena
*5 rst_n
*6 ui_in[0]
*7 ui_in[1]
*8 ui_in[2]
*9 ui_in[3]
*10 ui_in[4]
*11 ui_in[5]
*12 ui_in[6]
*13 ui_in[7]
*14 uio_in[0]
*15 uio_in[1]
*16 uio_in[2]
*17 uio_in[3]
*18 uio_in[4]
*19 uio_in[5]
*20 uio_in[6]
*21 uio_in[7]
*22 net36
*23 net37
*24 net38
*25 net39
*26 net40
*27 net41
*28 net42
*29 net43
*30 net44
*31 net45
*32 net46
*33 net47
*34 net48
*35 net49
*36 net50
*37 net51
*38 uo_out[0]
*39 uo_out[1]
*40 uo_out[2]
*41 uo_out[3]
*42 uo_out[4]
*43 uo_out[5]
*44 uo_out[6]
*45 uo_out[7]
*46 RF1\.reg_data\[0\]\[0\]
*47 RF1\.reg_data\[0\]\[1\]
*48 RF1\.reg_data\[0\]\[2\]
*49 RF1\.reg_data\[0\]\[3\]
*50 RF1\.reg_data\[0\]\[4\]
*51 RF1\.reg_data\[0\]\[5\]
*52 RF1\.reg_data\[0\]\[6\]
*53 RF1\.reg_data\[0\]\[7\]
*54 RF1\.reg_data\[10\]\[0\]
*55 RF1\.reg_data\[10\]\[1\]
*56 RF1\.reg_data\[10\]\[2\]
*57 RF1\.reg_data\[10\]\[3\]
*58 RF1\.reg_data\[10\]\[4\]
*59 RF1\.reg_data\[10\]\[5\]
*60 RF1\.reg_data\[10\]\[6\]
*61 RF1\.reg_data\[10\]\[7\]
*62 RF1\.reg_data\[11\]\[0\]
*63 RF1\.reg_data\[11\]\[1\]
*64 RF1\.reg_data\[11\]\[2\]
*65 RF1\.reg_data\[11\]\[3\]
*66 RF1\.reg_data\[11\]\[4\]
*67 RF1\.reg_data\[11\]\[5\]
*68 RF1\.reg_data\[11\]\[6\]
*69 RF1\.reg_data\[11\]\[7\]
*70 RF1\.reg_data\[1\]\[0\]
*71 RF1\.reg_data\[1\]\[1\]
*72 RF1\.reg_data\[1\]\[2\]
*73 RF1\.reg_data\[1\]\[3\]
*74 RF1\.reg_data\[1\]\[4\]
*75 RF1\.reg_data\[1\]\[5\]
*76 RF1\.reg_data\[1\]\[6\]
*77 RF1\.reg_data\[1\]\[7\]
*78 RF1\.reg_data\[2\]\[0\]
*79 RF1\.reg_data\[2\]\[1\]
*80 RF1\.reg_data\[2\]\[2\]
*81 RF1\.reg_data\[2\]\[3\]
*82 RF1\.reg_data\[2\]\[4\]
*83 RF1\.reg_data\[2\]\[5\]
*84 RF1\.reg_data\[2\]\[6\]
*85 RF1\.reg_data\[2\]\[7\]
*86 RF1\.reg_data\[3\]\[0\]
*87 RF1\.reg_data\[3\]\[1\]
*88 RF1\.reg_data\[3\]\[2\]
*89 RF1\.reg_data\[3\]\[3\]
*90 RF1\.reg_data\[3\]\[4\]
*91 RF1\.reg_data\[3\]\[5\]
*92 RF1\.reg_data\[3\]\[6\]
*93 RF1\.reg_data\[3\]\[7\]
*94 RF1\.reg_data\[4\]\[0\]
*95 RF1\.reg_data\[4\]\[1\]
*96 RF1\.reg_data\[4\]\[2\]
*97 RF1\.reg_data\[4\]\[3\]
*98 RF1\.reg_data\[4\]\[4\]
*99 RF1\.reg_data\[4\]\[5\]
*100 RF1\.reg_data\[4\]\[6\]
*101 RF1\.reg_data\[4\]\[7\]
*102 RF1\.reg_data\[5\]\[0\]
*103 RF1\.reg_data\[5\]\[1\]
*104 RF1\.reg_data\[5\]\[2\]
*105 RF1\.reg_data\[5\]\[3\]
*106 RF1\.reg_data\[5\]\[4\]
*107 RF1\.reg_data\[5\]\[5\]
*108 RF1\.reg_data\[5\]\[6\]
*109 RF1\.reg_data\[5\]\[7\]
*110 RF1\.reg_data\[6\]\[0\]
*111 RF1\.reg_data\[6\]\[1\]
*112 RF1\.reg_data\[6\]\[2\]
*113 RF1\.reg_data\[6\]\[3\]
*114 RF1\.reg_data\[6\]\[4\]
*115 RF1\.reg_data\[6\]\[5\]
*116 RF1\.reg_data\[6\]\[6\]
*117 RF1\.reg_data\[6\]\[7\]
*118 RF1\.reg_data\[7\]\[0\]
*119 RF1\.reg_data\[7\]\[1\]
*120 RF1\.reg_data\[7\]\[2\]
*121 RF1\.reg_data\[7\]\[3\]
*122 RF1\.reg_data\[7\]\[4\]
*123 RF1\.reg_data\[7\]\[5\]
*124 RF1\.reg_data\[7\]\[6\]
*125 RF1\.reg_data\[7\]\[7\]
*126 RF1\.reg_data\[8\]\[0\]
*127 RF1\.reg_data\[8\]\[1\]
*128 RF1\.reg_data\[8\]\[2\]
*129 RF1\.reg_data\[8\]\[3\]
*130 RF1\.reg_data\[8\]\[4\]
*131 RF1\.reg_data\[8\]\[5\]
*132 RF1\.reg_data\[8\]\[6\]
*133 RF1\.reg_data\[8\]\[7\]
*134 RF1\.reg_data\[9\]\[0\]
*135 RF1\.reg_data\[9\]\[1\]
*136 RF1\.reg_data\[9\]\[2\]
*137 RF1\.reg_data\[9\]\[3\]
*138 RF1\.reg_data\[9\]\[4\]
*139 RF1\.reg_data\[9\]\[5\]
*140 RF1\.reg_data\[9\]\[6\]
*141 RF1\.reg_data\[9\]\[7\]
*142 _0000_
*143 _0001_
*144 _0002_
*145 _0003_
*146 _0004_
*147 _0005_
*148 _0006_
*149 _0007_
*150 _0008_
*151 _0009_
*152 _0010_
*153 _0011_
*154 _0012_
*155 _0013_
*156 _0014_
*157 _0015_
*158 _0016_
*159 _0017_
*160 _0018_
*161 _0019_
*162 _0020_
*163 _0021_
*164 _0022_
*165 _0023_
*166 _0024_
*167 _0025_
*168 _0026_
*169 _0027_
*170 _0028_
*171 _0029_
*172 _0030_
*173 _0031_
*174 _0032_
*175 _0033_
*176 _0034_
*177 _0035_
*178 _0036_
*179 _0037_
*180 _0038_
*181 _0039_
*182 _0040_
*183 _0041_
*184 _0042_
*185 _0043_
*186 _0044_
*187 _0045_
*188 _0046_
*189 _0047_
*190 _0048_
*191 _0049_
*192 _0050_
*193 _0051_
*194 _0052_
*195 _0053_
*196 _0054_
*197 _0055_
*198 _0056_
*199 _0057_
*200 _0058_
*201 _0059_
*202 _0060_
*203 _0061_
*204 _0062_
*205 _0063_
*206 _0064_
*207 _0065_
*208 _0066_
*209 _0067_
*210 _0068_
*211 _0069_
*212 _0070_
*213 _0071_
*214 _0072_
*215 _0073_
*216 _0074_
*217 _0075_
*218 _0076_
*219 _0077_
*220 _0078_
*221 _0079_
*222 _0080_
*223 _0081_
*224 _0082_
*225 _0083_
*226 _0084_
*227 _0085_
*228 _0086_
*229 _0087_
*230 _0088_
*231 _0089_
*232 _0090_
*233 _0091_
*234 _0092_
*235 _0093_
*236 _0094_
*237 _0095_
*238 _0096_
*239 _0097_
*240 _0098_
*241 _0099_
*242 _0100_
*243 _0101_
*244 _0102_
*245 _0103_
*246 _0104_
*247 _0105_
*248 _0106_
*249 _0107_
*250 _0108_
*251 _0109_
*252 _0110_
*253 _0111_
*254 _0112_
*255 _0113_
*256 _0114_
*257 _0115_
*258 _0116_
*259 _0117_
*260 _0118_
*261 _0119_
*262 _0120_
*263 _0121_
*264 _0122_
*265 _0123_
*266 _0124_
*267 _0125_
*268 _0126_
*269 _0127_
*270 _0128_
*271 _0129_
*272 _0130_
*273 _0131_
*274 _0132_
*275 _0133_
*276 _0134_
*277 _0135_
*278 _0136_
*279 _0137_
*280 _0138_
*281 _0139_
*282 _0140_
*283 _0141_
*284 _0142_
*285 _0143_
*286 _0144_
*287 _0145_
*288 _0146_
*289 _0147_
*290 _0148_
*291 _0149_
*292 _0150_
*293 _0151_
*294 _0152_
*295 _0153_
*296 _0154_
*297 _0155_
*298 _0156_
*299 _0157_
*300 _0158_
*301 _0159_
*302 _0160_
*303 _0161_
*304 _0162_
*305 _0163_
*306 _0164_
*307 _0165_
*308 _0166_
*309 _0167_
*310 _0168_
*311 _0169_
*312 _0170_
*313 _0171_
*314 _0172_
*315 _0173_
*316 _0174_
*317 _0175_
*318 _0176_
*319 _0177_
*320 _0178_
*321 _0179_
*322 _0180_
*323 _0181_
*324 _0182_
*325 _0183_
*326 _0184_
*327 _0185_
*328 _0186_
*329 _0187_
*330 _0188_
*331 _0189_
*332 _0190_
*333 _0191_
*334 _0192_
*335 _0193_
*336 _0194_
*337 _0195_
*338 _0196_
*339 _0197_
*340 _0198_
*341 _0199_
*342 _0200_
*343 _0201_
*344 _0202_
*345 _0203_
*346 _0204_
*347 _0205_
*348 _0206_
*349 _0207_
*350 _0208_
*351 _0209_
*352 _0210_
*353 _0211_
*354 _0212_
*355 _0213_
*356 _0214_
*357 _0215_
*358 _0216_
*359 _0217_
*360 _0218_
*361 _0219_
*362 _0220_
*363 _0221_
*364 _0222_
*365 _0223_
*366 _0224_
*367 _0225_
*368 _0226_
*369 _0227_
*370 _0228_
*371 _0229_
*372 _0230_
*373 _0231_
*374 _0232_
*375 _0233_
*376 _0234_
*377 _0235_
*378 _0236_
*379 _0237_
*380 _0238_
*381 _0239_
*382 _0240_
*383 _0241_
*384 _0242_
*385 _0243_
*386 _0244_
*387 _0245_
*388 _0246_
*389 _0247_
*390 _0248_
*391 _0249_
*392 _0250_
*393 _0251_
*394 _0252_
*395 _0253_
*396 _0254_
*397 _0255_
*398 _0256_
*399 _0257_
*400 _0258_
*401 _0259_
*402 _0260_
*403 _0261_
*404 _0262_
*405 _0263_
*406 _0264_
*407 _0265_
*408 _0266_
*409 _0267_
*410 _0268_
*411 _0269_
*412 _0270_
*413 _0271_
*414 _0272_
*415 _0273_
*416 _0274_
*417 _0275_
*418 _0276_
*419 _0277_
*420 _0278_
*421 _0279_
*422 _0280_
*423 _0281_
*424 _0282_
*425 _0283_
*426 _0284_
*427 _0285_
*428 _0286_
*429 _0287_
*430 _0288_
*431 _0289_
*432 _0290_
*433 _0291_
*434 _0292_
*435 _0293_
*436 _0294_
*437 _0295_
*438 _0296_
*439 _0297_
*440 _0298_
*441 _0299_
*442 _0300_
*443 _0301_
*444 _0302_
*445 _0303_
*446 _0304_
*447 _0305_
*448 _0306_
*449 _0307_
*450 _0308_
*451 _0309_
*452 _0310_
*453 _0311_
*454 _0312_
*455 _0313_
*456 _0314_
*457 _0315_
*458 _0316_
*459 _0317_
*460 _0318_
*461 _0319_
*462 _0320_
*463 _0321_
*464 _0322_
*465 _0323_
*466 _0324_
*467 _0325_
*468 _0326_
*469 _0327_
*470 _0328_
*471 _0329_
*472 _0330_
*473 _0331_
*474 _0332_
*475 _0333_
*476 _0334_
*477 _0335_
*478 _0336_
*479 _0337_
*480 _0338_
*481 _0339_
*482 _0340_
*483 _0341_
*484 _0342_
*485 _0343_
*486 _0344_
*487 _0345_
*488 _0346_
*489 _0347_
*490 _0348_
*491 _0349_
*492 _0350_
*493 _0351_
*494 _0352_
*495 _0353_
*496 _0354_
*497 _0355_
*498 _0356_
*499 _0357_
*500 _0358_
*501 _0359_
*502 _0360_
*503 _0361_
*504 _0362_
*505 _0363_
*506 _0364_
*507 _0365_
*508 _0366_
*509 _0367_
*510 _0368_
*511 _0369_
*512 _0370_
*513 _0371_
*514 _0372_
*515 _0373_
*516 _0374_
*517 _0375_
*518 _0376_
*519 _0377_
*520 _0378_
*521 _0379_
*522 _0380_
*523 _0381_
*524 _0382_
*525 _0383_
*526 _0384_
*527 _0385_
*528 _0386_
*529 _0387_
*530 _0388_
*531 _0389_
*532 _0390_
*533 _0391_
*534 _0392_
*535 _0393_
*536 _0394_
*537 _0395_
*538 _0396_
*539 _0397_
*540 _0398_
*541 _0399_
*542 _0400_
*543 _0401_
*544 _0402_
*545 _0403_
*546 _0404_
*547 _0405_
*548 _0406_
*549 _0407_
*550 _0408_
*551 _0409_
*552 _0410_
*553 _0411_
*554 _0412_
*555 _0413_
*556 _0414_
*557 _0415_
*558 _0416_
*559 _0417_
*560 _0418_
*561 _0419_
*562 _0420_
*563 _0421_
*564 _0422_
*565 _0423_
*566 _0424_
*567 _0425_
*568 _0426_
*569 _0427_
*570 _0428_
*571 _0429_
*572 _0430_
*573 _0431_
*574 _0432_
*575 _0433_
*576 _0434_
*577 _0435_
*578 _0436_
*579 _0437_
*580 _0438_
*581 _0439_
*582 _0440_
*583 _0441_
*584 _0442_
*585 _0443_
*586 _0444_
*587 _0445_
*588 _0446_
*589 _0447_
*590 _0448_
*591 _0449_
*592 _0450_
*593 _0451_
*594 _0452_
*595 _0453_
*596 _0454_
*597 _0455_
*598 _0456_
*599 _0457_
*600 _0458_
*601 _0459_
*602 _0460_
*603 _0461_
*604 _0462_
*605 _0463_
*606 _0464_
*607 _0465_
*608 _0466_
*609 _0467_
*610 _0468_
*611 _0469_
*612 _0470_
*613 _0471_
*614 _0472_
*615 _0473_
*616 _0474_
*617 _0475_
*618 _0476_
*619 _0477_
*620 _0478_
*621 _0479_
*622 _0480_
*623 _0481_
*624 _0482_
*625 _0483_
*626 _0484_
*627 _0485_
*628 _0486_
*629 _0487_
*630 _0488_
*631 _0489_
*632 _0490_
*633 _0491_
*634 _0492_
*635 _0493_
*636 _0494_
*637 _0495_
*638 _0496_
*639 _0497_
*640 _0498_
*641 _0499_
*642 _0500_
*643 _0501_
*644 _0502_
*645 _0503_
*646 _0504_
*647 _0505_
*648 _0506_
*649 _0507_
*650 _0508_
*651 _0509_
*652 _0510_
*653 _0511_
*654 _0512_
*655 _0513_
*656 _0514_
*657 _0515_
*658 _0516_
*659 _0517_
*660 _0518_
*661 _0519_
*662 _0520_
*663 _0521_
*664 _0522_
*665 _0523_
*666 _0524_
*667 _0525_
*668 _0526_
*669 _0527_
*670 _0528_
*671 _0529_
*672 _0530_
*673 _0531_
*674 _0532_
*675 _0533_
*676 _0534_
*677 _0535_
*678 _0536_
*679 _0537_
*680 _0538_
*681 _0539_
*682 _0540_
*683 _0541_
*684 _0542_
*685 _0543_
*686 _0544_
*687 _0545_
*688 _0546_
*689 _0547_
*690 _0548_
*691 _0549_
*692 _0550_
*693 _0551_
*694 _0552_
*695 _0553_
*696 _0554_
*697 _0555_
*698 _0556_
*699 _0557_
*700 _0558_
*701 _0559_
*702 _0560_
*703 _0561_
*704 _0562_
*705 _0563_
*706 _0564_
*707 _0565_
*708 _0566_
*709 _0567_
*710 _0568_
*711 _0569_
*712 _0570_
*713 _0571_
*714 _0572_
*715 _0573_
*716 _0574_
*717 _0575_
*718 _0576_
*719 _0577_
*720 _0578_
*721 _0579_
*722 _0580_
*723 _0581_
*724 _0582_
*725 _0583_
*726 _0584_
*727 _0585_
*728 _0586_
*729 _0587_
*730 _0588_
*731 _0589_
*732 _0590_
*733 _0591_
*734 _0592_
*735 _0593_
*736 _0594_
*737 _0595_
*738 _0596_
*739 _0597_
*740 _0598_
*741 _0599_
*742 _0600_
*743 _0601_
*744 _0602_
*745 _0603_
*746 _0604_
*747 _0605_
*748 _0606_
*749 _0607_
*750 _0608_
*751 _0609_
*752 _0610_
*753 _0611_
*754 _0612_
*755 _0613_
*756 _0614_
*757 _0615_
*758 _0616_
*759 _0617_
*760 _0618_
*761 _0619_
*762 _0620_
*763 _0621_
*764 _0622_
*765 _0623_
*766 _0624_
*767 _0625_
*768 _0626_
*769 _0627_
*770 clknet_0_clk
*771 clknet_3_0__leaf_clk
*772 clknet_3_1__leaf_clk
*773 clknet_3_2__leaf_clk
*774 clknet_3_3__leaf_clk
*775 clknet_3_4__leaf_clk
*776 clknet_3_5__leaf_clk
*777 clknet_3_6__leaf_clk
*778 clknet_3_7__leaf_clk
*779 net1
*780 net10
*781 net11
*782 net12
*783 net13
*784 net14
*785 net15
*786 net16
*787 net17
*788 net18
*789 net19
*790 net2
*791 net20
*792 net21
*793 net22
*794 net23
*795 net24
*796 net25
*797 net26
*798 net27
*799 net28
*800 net29
*801 net3
*802 net30
*803 net31
*804 net32
*805 net33
*806 net34
*807 net35
*808 net4
*809 net5
*810 net52
*811 net6
*812 net7
*813 net8
*814 net9
*815 processor_stat
*816 FILLER_0_0_109
*817 FILLER_0_0_113
*818 FILLER_0_0_125
*819 FILLER_0_0_137
*820 FILLER_0_0_141
*821 FILLER_0_0_15
*822 FILLER_0_0_153
*823 FILLER_0_0_165
*824 FILLER_0_0_169
*825 FILLER_0_0_181
*826 FILLER_0_0_193
*827 FILLER_0_0_197
*828 FILLER_0_0_209
*829 FILLER_0_0_221
*830 FILLER_0_0_225
*831 FILLER_0_0_237
*832 FILLER_0_0_249
*833 FILLER_0_0_253
*834 FILLER_0_0_265
*835 FILLER_0_0_27
*836 FILLER_0_0_277
*837 FILLER_0_0_281
*838 FILLER_0_0_29
*839 FILLER_0_0_293
*840 FILLER_0_0_3
*841 FILLER_0_0_305
*842 FILLER_0_0_309
*843 FILLER_0_0_321
*844 FILLER_0_0_333
*845 FILLER_0_0_41
*846 FILLER_0_0_53
*847 FILLER_0_0_57
*848 FILLER_0_0_69
*849 FILLER_0_0_81
*850 FILLER_0_0_85
*851 FILLER_0_0_97
*852 FILLER_0_10_101
*853 FILLER_0_10_113
*854 FILLER_0_10_133
*855 FILLER_0_10_139
*856 FILLER_0_10_15
*857 FILLER_0_10_161
*858 FILLER_0_10_178
*859 FILLER_0_10_190
*860 FILLER_0_10_217
*861 FILLER_0_10_22
*862 FILLER_0_10_238
*863 FILLER_0_10_250
*864 FILLER_0_10_253
*865 FILLER_0_10_265
*866 FILLER_0_10_277
*867 FILLER_0_10_289
*868 FILLER_0_10_29
*869 FILLER_0_10_3
*870 FILLER_0_10_301
*871 FILLER_0_10_307
*872 FILLER_0_10_309
*873 FILLER_0_10_321
*874 FILLER_0_10_33
*875 FILLER_0_10_333
*876 FILLER_0_10_63
*877 FILLER_0_10_75
*878 FILLER_0_10_83
*879 FILLER_0_10_85
*880 FILLER_0_11_106
*881 FILLER_0_11_113
*882 FILLER_0_11_136
*883 FILLER_0_11_144
*884 FILLER_0_11_155
*885 FILLER_0_11_189
*886 FILLER_0_11_197
*887 FILLER_0_11_202
*888 FILLER_0_11_219
*889 FILLER_0_11_223
*890 FILLER_0_11_225
*891 FILLER_0_11_243
*892 FILLER_0_11_251
*893 FILLER_0_11_268
*894 FILLER_0_11_281
*895 FILLER_0_11_289
*896 FILLER_0_11_297
*897 FILLER_0_11_3
*898 FILLER_0_11_317
*899 FILLER_0_11_329
*900 FILLER_0_11_51
*901 FILLER_0_11_55
*902 FILLER_0_11_66
*903 FILLER_0_12_106
*904 FILLER_0_12_121
*905 FILLER_0_12_148
*906 FILLER_0_12_181
*907 FILLER_0_12_193
*908 FILLER_0_12_197
*909 FILLER_0_12_229
*910 FILLER_0_12_253
*911 FILLER_0_12_257
*912 FILLER_0_12_266
*913 FILLER_0_12_278
*914 FILLER_0_12_287
*915 FILLER_0_12_299
*916 FILLER_0_12_3
*917 FILLER_0_12_307
*918 FILLER_0_12_316
*919 FILLER_0_12_328
*920 FILLER_0_12_334
*921 FILLER_0_12_47
*922 FILLER_0_12_7
*923 FILLER_0_12_78
*924 FILLER_0_12_85
*925 FILLER_0_12_94
*926 FILLER_0_13_108
*927 FILLER_0_13_11
*928 FILLER_0_13_113
*929 FILLER_0_13_119
*930 FILLER_0_13_147
*931 FILLER_0_13_159
*932 FILLER_0_13_169
*933 FILLER_0_13_173
*934 FILLER_0_13_18
*935 FILLER_0_13_190
*936 FILLER_0_13_198
*937 FILLER_0_13_216
*938 FILLER_0_13_22
*939 FILLER_0_13_239
*940 FILLER_0_13_251
*941 FILLER_0_13_257
*942 FILLER_0_13_265
*943 FILLER_0_13_277
*944 FILLER_0_13_281
*945 FILLER_0_13_293
*946 FILLER_0_13_3
*947 FILLER_0_13_305
*948 FILLER_0_13_316
*949 FILLER_0_13_32
*950 FILLER_0_13_328
*951 FILLER_0_13_334
*952 FILLER_0_13_66
*953 FILLER_0_13_96
*954 FILLER_0_14_105
*955 FILLER_0_14_127
*956 FILLER_0_14_139
*957 FILLER_0_14_157
*958 FILLER_0_14_169
*959 FILLER_0_14_193
*960 FILLER_0_14_197
*961 FILLER_0_14_216
*962 FILLER_0_14_246
*963 FILLER_0_14_253
*964 FILLER_0_14_265
*965 FILLER_0_14_277
*966 FILLER_0_14_289
*967 FILLER_0_14_3
*968 FILLER_0_14_301
*969 FILLER_0_14_307
*970 FILLER_0_14_309
*971 FILLER_0_14_321
*972 FILLER_0_14_333
*973 FILLER_0_14_38
*974 FILLER_0_14_42
*975 FILLER_0_14_46
*976 FILLER_0_14_58
*977 FILLER_0_14_7
*978 FILLER_0_14_70
*979 FILLER_0_14_82
*980 FILLER_0_14_93
*981 FILLER_0_15_102
*982 FILLER_0_15_110
*983 FILLER_0_15_113
*984 FILLER_0_15_121
*985 FILLER_0_15_149
*986 FILLER_0_15_186
*987 FILLER_0_15_198
*988 FILLER_0_15_220
*989 FILLER_0_15_241
*990 FILLER_0_15_269
*991 FILLER_0_15_277
*992 FILLER_0_15_28
*993 FILLER_0_15_289
*994 FILLER_0_15_3
*995 FILLER_0_15_321
*996 FILLER_0_15_333
*997 FILLER_0_15_66
*998 FILLER_0_15_7
*999 FILLER_0_15_78
*1000 FILLER_0_15_90
*1001 FILLER_0_16_100
*1002 FILLER_0_16_112
*1003 FILLER_0_16_127
*1004 FILLER_0_16_138
*1005 FILLER_0_16_141
*1006 FILLER_0_16_153
*1007 FILLER_0_16_191
*1008 FILLER_0_16_195
*1009 FILLER_0_16_197
*1010 FILLER_0_16_233
*1011 FILLER_0_16_245
*1012 FILLER_0_16_273
*1013 FILLER_0_16_285
*1014 FILLER_0_16_297
*1015 FILLER_0_16_3
*1016 FILLER_0_16_309
*1017 FILLER_0_16_334
*1018 FILLER_0_16_38
*1019 FILLER_0_16_42
*1020 FILLER_0_16_66
*1021 FILLER_0_16_7
*1022 FILLER_0_16_81
*1023 FILLER_0_17_11
*1024 FILLER_0_17_110
*1025 FILLER_0_17_113
*1026 FILLER_0_17_121
*1027 FILLER_0_17_133
*1028 FILLER_0_17_145
*1029 FILLER_0_17_157
*1030 FILLER_0_17_162
*1031 FILLER_0_17_189
*1032 FILLER_0_17_20
*1033 FILLER_0_17_201
*1034 FILLER_0_17_232
*1035 FILLER_0_17_238
*1036 FILLER_0_17_259
*1037 FILLER_0_17_271
*1038 FILLER_0_17_279
*1039 FILLER_0_17_281
*1040 FILLER_0_17_293
*1041 FILLER_0_17_3
*1042 FILLER_0_17_305
*1043 FILLER_0_17_31
*1044 FILLER_0_17_317
*1045 FILLER_0_17_325
*1046 FILLER_0_17_330
*1047 FILLER_0_17_334
*1048 FILLER_0_17_43
*1049 FILLER_0_17_54
*1050 FILLER_0_17_66
*1051 FILLER_0_17_74
*1052 FILLER_0_18_109
*1053 FILLER_0_18_121
*1054 FILLER_0_18_138
*1055 FILLER_0_18_141
*1056 FILLER_0_18_153
*1057 FILLER_0_18_193
*1058 FILLER_0_18_229
*1059 FILLER_0_18_241
*1060 FILLER_0_18_249
*1061 FILLER_0_18_253
*1062 FILLER_0_18_265
*1063 FILLER_0_18_277
*1064 FILLER_0_18_29
*1065 FILLER_0_18_3
*1066 FILLER_0_18_302
*1067 FILLER_0_18_309
*1068 FILLER_0_18_333
*1069 FILLER_0_18_41
*1070 FILLER_0_18_49
*1071 FILLER_0_18_54
*1072 FILLER_0_18_66
*1073 FILLER_0_18_7
*1074 FILLER_0_18_78
*1075 FILLER_0_18_85
*1076 FILLER_0_18_97
*1077 FILLER_0_19_106
*1078 FILLER_0_19_113
*1079 FILLER_0_19_117
*1080 FILLER_0_19_155
*1081 FILLER_0_19_163
*1082 FILLER_0_19_199
*1083 FILLER_0_19_222
*1084 FILLER_0_19_229
*1085 FILLER_0_19_268
*1086 FILLER_0_19_281
*1087 FILLER_0_19_293
*1088 FILLER_0_19_3
*1089 FILLER_0_19_303
*1090 FILLER_0_19_307
*1091 FILLER_0_19_317
*1092 FILLER_0_19_329
*1093 FILLER_0_19_35
*1094 FILLER_0_19_47
*1095 FILLER_0_19_77
*1096 FILLER_0_19_85
*1097 FILLER_0_19_94
*1098 FILLER_0_1_105
*1099 FILLER_0_1_111
*1100 FILLER_0_1_113
*1101 FILLER_0_1_125
*1102 FILLER_0_1_137
*1103 FILLER_0_1_149
*1104 FILLER_0_1_15
*1105 FILLER_0_1_161
*1106 FILLER_0_1_167
*1107 FILLER_0_1_169
*1108 FILLER_0_1_181
*1109 FILLER_0_1_193
*1110 FILLER_0_1_205
*1111 FILLER_0_1_217
*1112 FILLER_0_1_223
*1113 FILLER_0_1_225
*1114 FILLER_0_1_237
*1115 FILLER_0_1_249
*1116 FILLER_0_1_261
*1117 FILLER_0_1_27
*1118 FILLER_0_1_273
*1119 FILLER_0_1_279
*1120 FILLER_0_1_281
*1121 FILLER_0_1_293
*1122 FILLER_0_1_3
*1123 FILLER_0_1_305
*1124 FILLER_0_1_317
*1125 FILLER_0_1_329
*1126 FILLER_0_1_39
*1127 FILLER_0_1_51
*1128 FILLER_0_1_55
*1129 FILLER_0_1_57
*1130 FILLER_0_1_69
*1131 FILLER_0_1_81
*1132 FILLER_0_1_93
*1133 FILLER_0_20_104
*1134 FILLER_0_20_116
*1135 FILLER_0_20_138
*1136 FILLER_0_20_141
*1137 FILLER_0_20_150
*1138 FILLER_0_20_162
*1139 FILLER_0_20_171
*1140 FILLER_0_20_188
*1141 FILLER_0_20_238
*1142 FILLER_0_20_250
*1143 FILLER_0_20_280
*1144 FILLER_0_20_292
*1145 FILLER_0_20_3
*1146 FILLER_0_20_304
*1147 FILLER_0_20_319
*1148 FILLER_0_20_331
*1149 FILLER_0_20_47
*1150 FILLER_0_20_7
*1151 FILLER_0_20_85
*1152 FILLER_0_21_108
*1153 FILLER_0_21_113
*1154 FILLER_0_21_134
*1155 FILLER_0_21_145
*1156 FILLER_0_21_161
*1157 FILLER_0_21_167
*1158 FILLER_0_21_169
*1159 FILLER_0_21_200
*1160 FILLER_0_21_225
*1161 FILLER_0_21_236
*1162 FILLER_0_21_244
*1163 FILLER_0_21_268
*1164 FILLER_0_21_281
*1165 FILLER_0_21_293
*1166 FILLER_0_21_3
*1167 FILLER_0_21_301
*1168 FILLER_0_21_312
*1169 FILLER_0_21_333
*1170 FILLER_0_21_42
*1171 FILLER_0_21_51
*1172 FILLER_0_21_55
*1173 FILLER_0_21_72
*1174 FILLER_0_21_84
*1175 FILLER_0_21_88
*1176 FILLER_0_21_9
*1177 FILLER_0_21_96
*1178 FILLER_0_22_106
*1179 FILLER_0_22_11
*1180 FILLER_0_22_118
*1181 FILLER_0_22_138
*1182 FILLER_0_22_141
*1183 FILLER_0_22_145
*1184 FILLER_0_22_166
*1185 FILLER_0_22_17
*1186 FILLER_0_22_216
*1187 FILLER_0_22_241
*1188 FILLER_0_22_262
*1189 FILLER_0_22_274
*1190 FILLER_0_22_286
*1191 FILLER_0_22_29
*1192 FILLER_0_22_298
*1193 FILLER_0_22_3
*1194 FILLER_0_22_306
*1195 FILLER_0_22_318
*1196 FILLER_0_22_330
*1197 FILLER_0_22_334
*1198 FILLER_0_22_41
*1199 FILLER_0_22_63
*1200 FILLER_0_22_75
*1201 FILLER_0_22_83
*1202 FILLER_0_22_85
*1203 FILLER_0_22_96
*1204 FILLER_0_23_105
*1205 FILLER_0_23_111
*1206 FILLER_0_23_113
*1207 FILLER_0_23_125
*1208 FILLER_0_23_134
*1209 FILLER_0_23_15
*1210 FILLER_0_23_163
*1211 FILLER_0_23_167
*1212 FILLER_0_23_169
*1213 FILLER_0_23_177
*1214 FILLER_0_23_210
*1215 FILLER_0_23_247
*1216 FILLER_0_23_260
*1217 FILLER_0_23_27
*1218 FILLER_0_23_272
*1219 FILLER_0_23_281
*1220 FILLER_0_23_293
*1221 FILLER_0_23_3
*1222 FILLER_0_23_305
*1223 FILLER_0_23_309
*1224 FILLER_0_23_317
*1225 FILLER_0_23_329
*1226 FILLER_0_23_39
*1227 FILLER_0_23_54
*1228 FILLER_0_23_66
*1229 FILLER_0_23_74
*1230 FILLER_0_23_84
*1231 FILLER_0_24_108
*1232 FILLER_0_24_117
*1233 FILLER_0_24_128
*1234 FILLER_0_24_136
*1235 FILLER_0_24_159
*1236 FILLER_0_24_176
*1237 FILLER_0_24_214
*1238 FILLER_0_24_247
*1239 FILLER_0_24_251
*1240 FILLER_0_24_253
*1241 FILLER_0_24_265
*1242 FILLER_0_24_269
*1243 FILLER_0_24_286
*1244 FILLER_0_24_298
*1245 FILLER_0_24_3
*1246 FILLER_0_24_306
*1247 FILLER_0_24_309
*1248 FILLER_0_24_319
*1249 FILLER_0_24_325
*1250 FILLER_0_24_332
*1251 FILLER_0_24_38
*1252 FILLER_0_24_7
*1253 FILLER_0_24_75
*1254 FILLER_0_25_111
*1255 FILLER_0_25_119
*1256 FILLER_0_25_128
*1257 FILLER_0_25_132
*1258 FILLER_0_25_152
*1259 FILLER_0_25_169
*1260 FILLER_0_25_209
*1261 FILLER_0_25_223
*1262 FILLER_0_25_225
*1263 FILLER_0_25_266
*1264 FILLER_0_25_276
*1265 FILLER_0_25_290
*1266 FILLER_0_25_3
*1267 FILLER_0_25_302
*1268 FILLER_0_25_312
*1269 FILLER_0_25_333
*1270 FILLER_0_25_42
*1271 FILLER_0_25_53
*1272 FILLER_0_25_66
*1273 FILLER_0_25_72
*1274 FILLER_0_25_93
*1275 FILLER_0_26_119
*1276 FILLER_0_26_137
*1277 FILLER_0_26_141
*1278 FILLER_0_26_160
*1279 FILLER_0_26_173
*1280 FILLER_0_26_192
*1281 FILLER_0_26_209
*1282 FILLER_0_26_248
*1283 FILLER_0_26_253
*1284 FILLER_0_26_296
*1285 FILLER_0_26_3
*1286 FILLER_0_26_326
*1287 FILLER_0_26_334
*1288 FILLER_0_26_38
*1289 FILLER_0_26_64
*1290 FILLER_0_26_7
*1291 FILLER_0_26_76
*1292 FILLER_0_26_93
*1293 FILLER_0_27_107
*1294 FILLER_0_27_11
*1295 FILLER_0_27_111
*1296 FILLER_0_27_120
*1297 FILLER_0_27_128
*1298 FILLER_0_27_140
*1299 FILLER_0_27_146
*1300 FILLER_0_27_169
*1301 FILLER_0_27_178
*1302 FILLER_0_27_20
*1303 FILLER_0_27_206
*1304 FILLER_0_27_281
*1305 FILLER_0_27_3
*1306 FILLER_0_27_30
*1307 FILLER_0_27_321
*1308 FILLER_0_27_325
*1309 FILLER_0_27_330
*1310 FILLER_0_27_334
*1311 FILLER_0_27_42
*1312 FILLER_0_27_72
*1313 FILLER_0_27_76
*1314 FILLER_0_27_84
*1315 FILLER_0_28_118
*1316 FILLER_0_28_130
*1317 FILLER_0_28_138
*1318 FILLER_0_28_141
*1319 FILLER_0_28_149
*1320 FILLER_0_28_165
*1321 FILLER_0_28_200
*1322 FILLER_0_28_212
*1323 FILLER_0_28_244
*1324 FILLER_0_28_253
*1325 FILLER_0_28_259
*1326 FILLER_0_28_263
*1327 FILLER_0_28_275
*1328 FILLER_0_28_287
*1329 FILLER_0_28_3
*1330 FILLER_0_28_334
*1331 FILLER_0_28_38
*1332 FILLER_0_28_7
*1333 FILLER_0_28_74
*1334 FILLER_0_28_82
*1335 FILLER_0_28_85
*1336 FILLER_0_28_93
*1337 FILLER_0_29_106
*1338 FILLER_0_29_11
*1339 FILLER_0_29_113
*1340 FILLER_0_29_125
*1341 FILLER_0_29_140
*1342 FILLER_0_29_152
*1343 FILLER_0_29_164
*1344 FILLER_0_29_190
*1345 FILLER_0_29_210
*1346 FILLER_0_29_233
*1347 FILLER_0_29_262
*1348 FILLER_0_29_274
*1349 FILLER_0_29_286
*1350 FILLER_0_29_294
*1351 FILLER_0_29_3
*1352 FILLER_0_29_305
*1353 FILLER_0_29_32
*1354 FILLER_0_29_329
*1355 FILLER_0_29_77
*1356 FILLER_0_29_89
*1357 FILLER_0_2_109
*1358 FILLER_0_2_121
*1359 FILLER_0_2_133
*1360 FILLER_0_2_139
*1361 FILLER_0_2_141
*1362 FILLER_0_2_15
*1363 FILLER_0_2_153
*1364 FILLER_0_2_165
*1365 FILLER_0_2_177
*1366 FILLER_0_2_189
*1367 FILLER_0_2_195
*1368 FILLER_0_2_197
*1369 FILLER_0_2_209
*1370 FILLER_0_2_221
*1371 FILLER_0_2_233
*1372 FILLER_0_2_245
*1373 FILLER_0_2_251
*1374 FILLER_0_2_253
*1375 FILLER_0_2_265
*1376 FILLER_0_2_27
*1377 FILLER_0_2_277
*1378 FILLER_0_2_289
*1379 FILLER_0_2_29
*1380 FILLER_0_2_3
*1381 FILLER_0_2_301
*1382 FILLER_0_2_307
*1383 FILLER_0_2_309
*1384 FILLER_0_2_321
*1385 FILLER_0_2_333
*1386 FILLER_0_2_41
*1387 FILLER_0_2_53
*1388 FILLER_0_2_65
*1389 FILLER_0_2_77
*1390 FILLER_0_2_83
*1391 FILLER_0_2_85
*1392 FILLER_0_2_97
*1393 FILLER_0_30_112
*1394 FILLER_0_30_138
*1395 FILLER_0_30_192
*1396 FILLER_0_30_202
*1397 FILLER_0_30_210
*1398 FILLER_0_30_241
*1399 FILLER_0_30_262
*1400 FILLER_0_30_290
*1401 FILLER_0_30_3
*1402 FILLER_0_30_302
*1403 FILLER_0_30_309
*1404 FILLER_0_30_317
*1405 FILLER_0_30_329
*1406 FILLER_0_30_38
*1407 FILLER_0_30_44
*1408 FILLER_0_30_68
*1409 FILLER_0_31_107
*1410 FILLER_0_31_111
*1411 FILLER_0_31_120
*1412 FILLER_0_31_140
*1413 FILLER_0_31_157
*1414 FILLER_0_31_177
*1415 FILLER_0_31_189
*1416 FILLER_0_31_199
*1417 FILLER_0_31_203
*1418 FILLER_0_31_207
*1419 FILLER_0_31_211
*1420 FILLER_0_31_220
*1421 FILLER_0_31_230
*1422 FILLER_0_31_244
*1423 FILLER_0_31_261
*1424 FILLER_0_31_270
*1425 FILLER_0_31_299
*1426 FILLER_0_31_3
*1427 FILLER_0_31_322
*1428 FILLER_0_31_334
*1429 FILLER_0_31_45
*1430 FILLER_0_31_49
*1431 FILLER_0_31_53
*1432 FILLER_0_31_66
*1433 FILLER_0_31_78
*1434 FILLER_0_32_101
*1435 FILLER_0_32_113
*1436 FILLER_0_32_138
*1437 FILLER_0_32_146
*1438 FILLER_0_32_15
*1439 FILLER_0_32_164
*1440 FILLER_0_32_176
*1441 FILLER_0_32_188
*1442 FILLER_0_32_210
*1443 FILLER_0_32_226
*1444 FILLER_0_32_240
*1445 FILLER_0_32_246
*1446 FILLER_0_32_274
*1447 FILLER_0_32_280
*1448 FILLER_0_32_29
*1449 FILLER_0_32_293
*1450 FILLER_0_32_3
*1451 FILLER_0_32_326
*1452 FILLER_0_32_334
*1453 FILLER_0_32_44
*1454 FILLER_0_32_56
*1455 FILLER_0_32_68
*1456 FILLER_0_32_80
*1457 FILLER_0_33_108
*1458 FILLER_0_33_11
*1459 FILLER_0_33_113
*1460 FILLER_0_33_154
*1461 FILLER_0_33_166
*1462 FILLER_0_33_169
*1463 FILLER_0_33_17
*1464 FILLER_0_33_181
*1465 FILLER_0_33_193
*1466 FILLER_0_33_204
*1467 FILLER_0_33_222
*1468 FILLER_0_33_225
*1469 FILLER_0_33_229
*1470 FILLER_0_33_244
*1471 FILLER_0_33_262
*1472 FILLER_0_33_274
*1473 FILLER_0_33_281
*1474 FILLER_0_33_293
*1475 FILLER_0_33_3
*1476 FILLER_0_33_320
*1477 FILLER_0_33_332
*1478 FILLER_0_33_53
*1479 FILLER_0_33_57
*1480 FILLER_0_33_69
*1481 FILLER_0_33_88
*1482 FILLER_0_34_103
*1483 FILLER_0_34_115
*1484 FILLER_0_34_139
*1485 FILLER_0_34_141
*1486 FILLER_0_34_153
*1487 FILLER_0_34_165
*1488 FILLER_0_34_189
*1489 FILLER_0_34_195
*1490 FILLER_0_34_206
*1491 FILLER_0_34_242
*1492 FILLER_0_34_250
*1493 FILLER_0_34_253
*1494 FILLER_0_34_265
*1495 FILLER_0_34_277
*1496 FILLER_0_34_281
*1497 FILLER_0_34_288
*1498 FILLER_0_34_3
*1499 FILLER_0_34_304
*1500 FILLER_0_34_319
*1501 FILLER_0_34_331
*1502 FILLER_0_34_49
*1503 FILLER_0_34_61
*1504 FILLER_0_34_69
*1505 FILLER_0_35_100
*1506 FILLER_0_35_104
*1507 FILLER_0_35_110
*1508 FILLER_0_35_113
*1509 FILLER_0_35_125
*1510 FILLER_0_35_133
*1511 FILLER_0_35_145
*1512 FILLER_0_35_15
*1513 FILLER_0_35_157
*1514 FILLER_0_35_166
*1515 FILLER_0_35_176
*1516 FILLER_0_35_188
*1517 FILLER_0_35_196
*1518 FILLER_0_35_223
*1519 FILLER_0_35_236
*1520 FILLER_0_35_244
*1521 FILLER_0_35_269
*1522 FILLER_0_35_277
*1523 FILLER_0_35_281
*1524 FILLER_0_35_289
*1525 FILLER_0_35_295
*1526 FILLER_0_35_3
*1527 FILLER_0_35_317
*1528 FILLER_0_35_329
*1529 FILLER_0_35_38
*1530 FILLER_0_35_50
*1531 FILLER_0_35_57
*1532 FILLER_0_35_69
*1533 FILLER_0_35_77
*1534 FILLER_0_36_103
*1535 FILLER_0_36_128
*1536 FILLER_0_36_132
*1537 FILLER_0_36_167
*1538 FILLER_0_36_175
*1539 FILLER_0_36_210
*1540 FILLER_0_36_241
*1541 FILLER_0_36_250
*1542 FILLER_0_36_259
*1543 FILLER_0_36_274
*1544 FILLER_0_36_286
*1545 FILLER_0_36_3
*1546 FILLER_0_36_322
*1547 FILLER_0_36_334
*1548 FILLER_0_36_35
*1549 FILLER_0_36_47
*1550 FILLER_0_36_7
*1551 FILLER_0_36_78
*1552 FILLER_0_36_91
*1553 FILLER_0_37_108
*1554 FILLER_0_37_113
*1555 FILLER_0_37_142
*1556 FILLER_0_37_166
*1557 FILLER_0_37_212
*1558 FILLER_0_37_221
*1559 FILLER_0_37_237
*1560 FILLER_0_37_245
*1561 FILLER_0_37_271
*1562 FILLER_0_37_279
*1563 FILLER_0_37_287
*1564 FILLER_0_37_295
*1565 FILLER_0_37_3
*1566 FILLER_0_37_30
*1567 FILLER_0_37_301
*1568 FILLER_0_37_330
*1569 FILLER_0_37_334
*1570 FILLER_0_37_87
*1571 FILLER_0_37_96
*1572 FILLER_0_38_10
*1573 FILLER_0_38_102
*1574 FILLER_0_38_106
*1575 FILLER_0_38_110
*1576 FILLER_0_38_113
*1577 FILLER_0_38_118
*1578 FILLER_0_38_130
*1579 FILLER_0_38_138
*1580 FILLER_0_38_14
*1581 FILLER_0_38_141
*1582 FILLER_0_38_160
*1583 FILLER_0_38_169
*1584 FILLER_0_38_173
*1585 FILLER_0_38_18
*1586 FILLER_0_38_182
*1587 FILLER_0_38_22
*1588 FILLER_0_38_249
*1589 FILLER_0_38_278
*1590 FILLER_0_38_281
*1591 FILLER_0_38_287
*1592 FILLER_0_38_294
*1593 FILLER_0_38_298
*1594 FILLER_0_38_302
*1595 FILLER_0_38_306
*1596 FILLER_0_38_313
*1597 FILLER_0_38_32
*1598 FILLER_0_38_322
*1599 FILLER_0_38_330
*1600 FILLER_0_38_334
*1601 FILLER_0_38_38
*1602 FILLER_0_38_42
*1603 FILLER_0_38_46
*1604 FILLER_0_38_6
*1605 FILLER_0_38_80
*1606 FILLER_0_38_88
*1607 FILLER_0_38_94
*1608 FILLER_0_38_98
*1609 FILLER_0_3_105
*1610 FILLER_0_3_111
*1611 FILLER_0_3_113
*1612 FILLER_0_3_125
*1613 FILLER_0_3_137
*1614 FILLER_0_3_149
*1615 FILLER_0_3_15
*1616 FILLER_0_3_156
*1617 FILLER_0_3_166
*1618 FILLER_0_3_169
*1619 FILLER_0_3_181
*1620 FILLER_0_3_193
*1621 FILLER_0_3_205
*1622 FILLER_0_3_211
*1623 FILLER_0_3_215
*1624 FILLER_0_3_219
*1625 FILLER_0_3_223
*1626 FILLER_0_3_225
*1627 FILLER_0_3_237
*1628 FILLER_0_3_249
*1629 FILLER_0_3_261
*1630 FILLER_0_3_27
*1631 FILLER_0_3_273
*1632 FILLER_0_3_279
*1633 FILLER_0_3_281
*1634 FILLER_0_3_293
*1635 FILLER_0_3_3
*1636 FILLER_0_3_305
*1637 FILLER_0_3_317
*1638 FILLER_0_3_329
*1639 FILLER_0_3_39
*1640 FILLER_0_3_51
*1641 FILLER_0_3_55
*1642 FILLER_0_3_57
*1643 FILLER_0_3_69
*1644 FILLER_0_3_81
*1645 FILLER_0_3_93
*1646 FILLER_0_4_109
*1647 FILLER_0_4_121
*1648 FILLER_0_4_133
*1649 FILLER_0_4_139
*1650 FILLER_0_4_141
*1651 FILLER_0_4_15
*1652 FILLER_0_4_169
*1653 FILLER_0_4_176
*1654 FILLER_0_4_188
*1655 FILLER_0_4_192
*1656 FILLER_0_4_197
*1657 FILLER_0_4_205
*1658 FILLER_0_4_226
*1659 FILLER_0_4_238
*1660 FILLER_0_4_249
*1661 FILLER_0_4_262
*1662 FILLER_0_4_27
*1663 FILLER_0_4_274
*1664 FILLER_0_4_286
*1665 FILLER_0_4_29
*1666 FILLER_0_4_298
*1667 FILLER_0_4_3
*1668 FILLER_0_4_306
*1669 FILLER_0_4_309
*1670 FILLER_0_4_321
*1671 FILLER_0_4_333
*1672 FILLER_0_4_41