*SPEF "ieee 1481-1999"
*DESIGN "tt_um_alexsegura_pong"
*DATE "11:11:11 Fri 11 11, 1111"
*VENDOR "OpenRCX"
*PROGRAM "Parallel Extraction"
*VERSION "1.0"
*DESIGN_FLOW "NAME_SCOPE LOCAL" "PIN_CAP NONE"
*DIVIDER /
*DELIMITER :
*BUS_DELIMITER []
*T_UNIT 1 NS
*C_UNIT 1 PF
*R_UNIT 1 OHM
*L_UNIT 1 HENRY

*NAME_MAP
*3 clk
*4 ena
*5 rst_n
*6 ui_in[0]
*7 ui_in[1]
*8 ui_in[2]
*9 ui_in[3]
*10 ui_in[4]
*11 ui_in[5]
*12 ui_in[6]
*13 ui_in[7]
*14 uio_in[0]
*15 uio_in[1]
*16 uio_in[2]
*17 uio_in[3]
*18 uio_in[4]
*19 uio_in[5]
*20 uio_in[6]
*21 uio_in[7]
*22 net7
*23 net8
*24 net9
*25 net10
*26 net11
*27 net12
*28 net13
*29 net14
*30 net15
*31 net16
*32 net17
*33 net18
*34 net19
*35 net20
*36 net21
*37 net22
*38 uo_out[0]
*39 uo_out[1]
*40 uo_out[2]
*41 uo_out[3]
*42 uo_out[4]
*43 uo_out[5]
*44 uo_out[6]
*45 uo_out[7]
*46 _0000_
*47 _0001_
*48 _0002_
*49 _0003_
*50 _0004_
*51 _0005_
*52 _0006_
*53 _0007_
*54 _0008_
*55 _0009_
*56 _0010_
*57 _0011_
*58 _0012_
*59 _0013_
*60 _0014_
*61 _0015_
*62 _0016_
*63 _0017_
*64 _0018_
*65 _0019_
*66 _0020_
*67 _0021_
*68 _0022_
*69 _0023_
*70 _0024_
*71 _0025_
*72 _0026_
*73 _0027_
*74 _0028_
*75 _0029_
*76 _0030_
*77 _0031_
*78 _0032_
*79 _0033_
*80 _0034_
*81 _0035_
*82 _0036_
*83 _0037_
*84 _0038_
*85 _0039_
*86 _0040_
*87 _0041_
*88 _0042_
*89 _0043_
*90 _0044_
*91 _0045_
*92 _0046_
*93 _0047_
*94 _0048_
*95 _0049_
*96 _0050_
*97 _0051_
*98 _0052_
*99 _0053_
*100 _0054_
*101 _0055_
*102 _0056_
*103 _0057_
*104 _0058_
*105 _0059_
*106 _0060_
*107 _0061_
*108 _0062_
*109 _0063_
*110 _0064_
*111 _0065_
*112 _0066_
*113 _0067_
*114 _0068_
*115 _0069_
*116 _0070_
*117 _0071_
*118 _0072_
*119 _0073_
*120 _0074_
*121 _0075_
*122 _0076_
*123 _0077_
*124 _0078_
*125 _0079_
*126 _0080_
*127 _0081_
*128 _0082_
*129 _0083_
*130 _0084_
*131 _0085_
*132 _0086_
*133 _0087_
*134 _0088_
*135 _0089_
*136 _0090_
*137 _0091_
*138 _0092_
*139 _0093_
*140 _0094_
*141 _0095_
*142 _0096_
*143 _0097_
*144 _0098_
*145 _0099_
*146 _0100_
*147 _0101_
*148 _0102_
*149 _0103_
*150 _0104_
*151 _0105_
*152 _0106_
*153 _0107_
*154 _0108_
*155 _0109_
*156 _0110_
*157 _0111_
*158 _0112_
*159 _0113_
*160 _0114_
*161 _0115_
*162 _0116_
*163 _0117_
*164 _0118_
*165 _0119_
*166 _0120_
*167 _0121_
*168 _0122_
*169 _0123_
*170 _0124_
*171 _0125_
*172 _0126_
*173 _0127_
*174 _0128_
*175 _0129_
*176 _0130_
*177 _0131_
*178 _0132_
*179 _0133_
*180 _0134_
*181 _0135_
*182 _0136_
*183 _0137_
*184 _0138_
*185 _0139_
*186 _0140_
*187 _0141_
*188 _0142_
*189 _0143_
*190 _0144_
*191 _0145_
*192 _0146_
*193 _0147_
*194 _0148_
*195 _0149_
*196 _0150_
*197 _0151_
*198 _0152_
*199 _0153_
*200 _0154_
*201 _0155_
*202 _0156_
*203 _0157_
*204 _0158_
*205 _0159_
*206 _0160_
*207 _0161_
*208 _0162_
*209 _0163_
*210 _0164_
*211 _0165_
*212 _0166_
*213 _0167_
*214 _0168_
*215 _0169_
*216 _0170_
*217 _0171_
*218 _0172_
*219 _0173_
*220 _0174_
*221 _0175_
*222 _0176_
*223 _0177_
*224 _0178_
*225 _0179_
*226 _0180_
*227 _0181_
*228 _0182_
*229 _0183_
*230 _0184_
*231 _0185_
*232 _0186_
*233 _0187_
*234 _0188_
*235 _0189_
*236 _0190_
*237 _0191_
*238 _0192_
*239 _0193_
*240 _0194_
*241 _0195_
*242 _0196_
*243 _0197_
*244 _0198_
*245 _0199_
*246 _0200_
*247 _0201_
*248 _0202_
*249 _0203_
*250 _0204_
*251 _0205_
*252 _0206_
*253 _0207_
*254 _0208_
*255 _0209_
*256 _0210_
*257 _0211_
*258 _0212_
*259 _0213_
*260 _0214_
*261 _0215_
*262 _0216_
*263 _0217_
*264 _0218_
*265 _0219_
*266 _0220_
*267 _0221_
*268 _0222_
*269 _0223_
*270 _0224_
*271 _0225_
*272 _0226_
*273 _0227_
*274 _0228_
*275 _0229_
*276 _0230_
*277 _0231_
*278 _0232_
*279 _0233_
*280 _0234_
*281 _0235_
*282 _0236_
*283 _0237_
*284 _0238_
*285 _0239_
*286 _0240_
*287 _0241_
*288 _0242_
*289 _0243_
*290 _0244_
*291 _0245_
*292 _0246_
*293 _0247_
*294 _0248_
*295 _0249_
*296 _0250_
*297 _0251_
*298 _0252_
*299 _0253_
*300 _0254_
*301 _0255_
*302 _0256_
*303 _0257_
*304 _0258_
*305 _0259_
*306 _0260_
*307 _0261_
*308 _0262_
*309 _0263_
*310 _0264_
*311 _0265_
*312 _0266_
*313 _0267_
*314 _0268_
*315 _0269_
*316 _0270_
*317 _0271_
*318 _0272_
*319 _0273_
*320 _0274_
*321 _0275_
*322 _0276_
*323 _0277_
*324 _0278_
*325 _0279_
*326 _0280_
*327 _0281_
*328 _0282_
*329 _0283_
*330 _0284_
*331 _0285_
*332 _0286_
*333 _0287_
*334 _0288_
*335 _0289_
*336 _0290_
*337 _0291_
*338 _0292_
*339 _0293_
*340 _0294_
*341 _0295_
*342 _0296_
*343 _0297_
*344 _0298_
*345 _0299_
*346 _0300_
*347 _0301_
*348 _0302_
*349 _0303_
*350 _0304_
*351 _0305_
*352 _0306_
*353 _0307_
*354 _0308_
*355 _0309_
*356 _0310_
*357 _0311_
*358 _0312_
*359 _0313_
*360 _0314_
*361 _0315_
*362 _0316_
*363 _0317_
*364 _0318_
*365 _0319_
*366 _0320_
*367 _0321_
*368 _0322_
*369 _0323_
*370 _0324_
*371 _0325_
*372 _0326_
*373 _0327_
*374 _0328_
*375 _0329_
*376 _0330_
*377 _0331_
*378 _0332_
*379 _0333_
*380 _0334_
*381 _0335_
*382 _0336_
*383 _0337_
*384 _0338_
*385 _0339_
*386 _0340_
*387 _0341_
*388 _0342_
*389 _0343_
*390 _0344_
*391 _0345_
*392 _0346_
*393 _0347_
*394 _0348_
*395 _0349_
*396 _0350_
*397 _0351_
*398 _0352_
*399 _0353_
*400 _0354_
*401 _0355_
*402 _0356_
*403 _0357_
*404 _0358_
*405 _0359_
*406 _0360_
*407 _0361_
*408 _0362_
*409 _0363_
*410 _0364_
*411 _0365_
*412 _0366_
*413 _0367_
*414 _0368_
*415 _0369_
*416 _0370_
*417 _0371_
*418 _0372_
*419 _0373_
*420 _0374_
*421 _0375_
*422 _0376_
*423 _0377_
*424 _0378_
*425 _0379_
*426 _0380_
*427 _0381_
*428 _0382_
*429 _0383_
*430 _0384_
*431 _0385_
*432 _0386_
*433 _0387_
*434 _0388_
*435 _0389_
*436 _0390_
*437 _0391_
*438 _0392_
*439 _0393_
*440 _0394_
*441 _0395_
*442 _0396_
*443 _0397_
*444 _0398_
*445 _0399_
*446 _0400_
*447 _0401_
*448 _0402_
*449 _0403_
*450 _0404_
*451 _0405_
*452 _0406_
*453 _0407_
*454 _0408_
*455 _0409_
*456 _0410_
*457 _0411_
*458 _0412_
*459 _0413_
*460 _0414_
*461 _0415_
*462 _0416_
*463 _0417_
*464 _0418_
*465 _0419_
*466 _0420_
*467 _0421_
*468 _0422_
*469 _0423_
*470 _0424_
*471 _0425_
*472 _0426_
*473 _0427_
*474 _0428_
*475 _0429_
*476 _0430_
*477 _0431_
*478 _0432_
*479 _0433_
*480 _0434_
*481 _0435_
*482 _0436_
*483 _0437_
*484 _0438_
*485 _0439_
*486 _0440_
*487 _0441_
*488 _0442_
*489 _0443_
*490 _0444_
*491 _0445_
*492 _0446_
*493 _0447_
*494 _0448_
*495 _0449_
*496 _0450_
*497 _0451_
*498 _0452_
*499 _0453_
*500 _0454_
*501 _0455_
*502 _0456_
*503 _0457_
*504 _0458_
*505 _0459_
*506 _0460_
*507 _0461_
*508 _0462_
*509 _0463_
*510 _0464_
*511 _0465_
*512 _0466_
*513 _0467_
*514 _0468_
*515 _0469_
*516 _0470_
*517 _0471_
*518 _0472_
*519 _0473_
*520 _0474_
*521 _0475_
*522 _0476_
*523 _0477_
*524 _0478_
*525 _0479_
*526 _0480_
*527 _0481_
*528 _0482_
*529 _0483_
*530 _0484_
*531 _0485_
*532 _0486_
*533 _0487_
*534 _0488_
*535 _0489_
*536 _0490_
*537 _0491_
*538 _0492_
*539 _0493_
*540 _0494_
*541 _0495_
*542 _0496_
*543 _0497_
*544 _0498_
*545 _0499_
*546 _0500_
*547 _0501_
*548 _0502_
*549 _0503_
*550 _0504_
*551 _0505_
*552 _0506_
*553 _0507_
*554 _0508_
*555 _0509_
*556 _0510_
*557 _0511_
*558 _0512_
*559 _0513_
*560 _0514_
*561 _0515_
*562 _0516_
*563 _0517_
*564 _0518_
*565 _0519_
*566 _0520_
*567 _0521_
*568 _0522_
*569 _0523_
*570 _0524_
*571 _0525_
*572 _0526_
*573 _0527_
*574 _0528_
*575 _0529_
*576 _0530_
*577 _0531_
*578 _0532_
*579 _0533_
*580 _0534_
*581 _0535_
*582 _0536_
*583 _0537_
*584 _0538_
*585 _0539_
*586 _0540_
*587 _0541_
*588 _0542_
*589 _0543_
*590 _0544_
*591 _0545_
*592 _0546_
*593 _0547_
*594 _0548_
*595 _0549_
*596 _0550_
*597 _0551_
*598 _0552_
*599 _0553_
*600 _0554_
*601 _0555_
*602 _0556_
*603 _0557_
*604 _0558_
*605 _0559_
*606 _0560_
*607 _0561_
*608 _0562_
*609 _0563_
*610 _0564_
*611 _0565_
*612 _0566_
*613 _0567_
*614 _0568_
*615 _0569_
*616 _0570_
*617 _0571_
*618 _0572_
*619 _0573_
*620 _0574_
*621 _0575_
*622 _0576_
*623 _0577_
*624 _0578_
*625 _0579_
*626 _0580_
*627 _0581_
*628 _0582_
*629 _0583_
*630 _0584_
*631 _0585_
*632 _0586_
*633 _0587_
*634 _0588_
*635 _0589_
*636 _0590_
*637 _0591_
*638 _0592_
*639 _0593_
*640 _0594_
*641 _0595_
*642 _0596_
*643 _0597_
*644 _0598_
*645 _0599_
*646 _0600_
*647 _0601_
*648 _0602_
*649 _0603_
*650 _0604_
*651 _0605_
*652 _0606_
*653 _0607_
*654 _0608_
*655 _0609_
*656 _0610_
*657 _0611_
*658 _0612_
*659 _0613_
*660 _0614_
*661 _0615_
*662 _0616_
*663 _0617_
*664 _0618_
*665 _0619_
*666 _0620_
*667 _0621_
*668 _0622_
*669 _0623_
*670 _0624_
*671 _0625_
*672 _0626_
*673 _0627_
*674 _0628_
*675 _0629_
*676 _0630_
*677 _0631_
*678 _0632_
*679 _0633_
*680 _0634_
*681 _0635_
*682 _0636_
*683 _0637_
*684 _0638_
*685 _0639_
*686 _0640_
*687 _0641_
*688 _0642_
*689 _0643_
*690 _0644_
*691 _0645_
*692 _0646_
*693 _0647_
*694 _0648_
*695 _0649_
*696 _0650_
*697 _0651_
*698 _0652_
*699 _0653_
*700 _0654_
*701 _0655_
*702 _0656_
*703 _0657_
*704 _0658_
*705 _0659_
*706 _0660_
*707 _0661_
*708 _0662_
*709 _0663_
*710 _0664_
*711 _0665_
*712 _0666_
*713 _0667_
*714 _0668_
*715 _0669_
*716 _0670_
*717 _0671_
*718 _0672_
*719 _0673_
*720 _0674_
*721 _0675_
*722 _0676_
*723 _0677_
*724 _0678_
*725 _0679_
*726 _0680_
*727 _0681_
*728 _0682_
*729 _0683_
*730 _0684_
*731 _0685_
*732 _0686_
*733 _0687_
*734 _0688_
*735 _0689_
*736 _0690_
*737 _0691_
*738 _0692_
*739 _0693_
*740 _0694_
*741 _0695_
*742 _0696_
*743 _0697_
*744 _0698_
*745 _0699_
*746 _0700_
*747 _0701_
*748 _0702_
*749 _0703_
*750 _0704_
*751 _0705_
*752 _0706_
*753 _0707_
*754 _0708_
*755 _0709_
*756 _0710_
*757 _0711_
*758 _0712_
*759 _0713_
*760 _0714_
*761 _0715_
*762 _0716_
*763 _0717_
*764 _0718_
*765 _0719_
*766 _0720_
*767 _0721_
*768 _0722_
*769 _0723_
*770 _0724_
*771 clknet_0_clk
*772 clknet_4_0_0_clk
*773 clknet_4_10_0_clk
*774 clknet_4_11_0_clk
*775 clknet_4_12_0_clk
*776 clknet_4_13_0_clk
*777 clknet_4_14_0_clk
*778 clknet_4_15_0_clk
*779 clknet_4_1_0_clk
*780 clknet_4_2_0_clk
*781 clknet_4_3_0_clk
*782 clknet_4_4_0_clk
*783 clknet_4_5_0_clk
*784 clknet_4_6_0_clk
*785 clknet_4_7_0_clk
*786 clknet_4_8_0_clk
*787 clknet_4_9_0_clk
*788 hvsync_generator\.hsync
*789 hvsync_generator\.sx\[0\]
*790 hvsync_generator\.sx\[1\]
*791 hvsync_generator\.sx\[2\]
*792 hvsync_generator\.sx\[3\]
*793 hvsync_generator\.sx\[4\]
*794 hvsync_generator\.sx\[5\]
*795 hvsync_generator\.sx\[6\]
*796 hvsync_generator\.sx\[7\]
*797 hvsync_generator\.sx\[8\]
*798 hvsync_generator\.sx\[9\]
*799 hvsync_generator\.sy\[0\]
*800 hvsync_generator\.sy\[1\]
*801 hvsync_generator\.sy\[2\]
*802 hvsync_generator\.sy\[3\]
*803 hvsync_generator\.sy\[4\]
*804 hvsync_generator\.sy\[5\]
*805 hvsync_generator\.sy\[6\]
*806 hvsync_generator\.sy\[7\]
*807 hvsync_generator\.sy\[8\]
*808 hvsync_generator\.sy\[9\]
*809 hvsync_generator\.vsync
*810 net1
*811 net2
*812 net23
*813 net24
*814 net25
*815 net26
*816 net27
*817 net28
*818 net29
*819 net3
*820 net30
*821 net31
*822 net32
*823 net33
*824 net34
*825 net35
*826 net36
*827 net37
*828 net38
*829 net39
*830 net4
*831 net40
*832 net41
*833 net42
*834 net43
*835 net44
*836 net45
*837 net46
*838 net47
*839 net48
*840 net49
*841 net5
*842 net50
*843 net51
*844 net52
*845 net53
*846 net54
*847 net55
*848 net56
*849 net57
*850 net58
*851 net59
*852 net6
*853 net60
*854 net61
*855 net62
*856 net63
*857 net64
*858 net65
*859 net66
*860 net67
*861 net68
*862 net69
*863 net70
*864 net71
*865 net72
*866 net73
*867 net74
*868 net75
*869 net76
*870 net77
*871 net78
*872 net79
*873 net80
*874 net81
*875 net82
*876 net83
*877 net84
*878 net85
*879 net86
*880 net87
*881 net88
*882 net89
*883 net90
*884 net91
*885 net92
*886 p1\.adb
*887 p1\.bdb
*888 p1\.dpa\.button_hist\[0\]
*889 p1\.dpa\.button_hist\[1\]
*890 p1\.dpa\.button_hist\[2\]
*891 p1\.dpa\.button_hist\[3\]
*892 p1\.dpa\.button_hist\[4\]
*893 p1\.dpa\.button_hist\[5\]
*894 p1\.dpa\.button_hist\[6\]
*895 p1\.dpa\.button_hist\[7\]
*896 p1\.dpb\.button_hist\[0\]
*897 p1\.dpb\.button_hist\[1\]
*898 p1\.dpb\.button_hist\[2\]
*899 p1\.dpb\.button_hist\[3\]
*900 p1\.dpb\.button_hist\[4\]
*901 p1\.dpb\.button_hist\[5\]
*902 p1\.dpb\.button_hist\[6\]
*903 p1\.dpb\.button_hist\[7\]
*904 p1\.enc\.old_a
*905 p1\.enc\.old_b
*906 p1\.enc\.value\[0\]
*907 p1\.enc\.value\[1\]
*908 p1\.enc\.value\[2\]
*909 p1\.enc\.value\[3\]
*910 p1\.enc\.value\[4\]
*911 p1\.enc\.value\[5\]
*912 p1\.enc\.value\[6\]
*913 p1\.enc\.value\[7\]
*914 p1\.enc\.value\[8\]
*915 p2\.adb
*916 p2\.bdb
*917 p2\.dpa\.button_hist\[0\]
*918 p2\.dpa\.button_hist\[1\]
*919 p2\.dpa\.button_hist\[2\]
*920 p2\.dpa\.button_hist\[3\]
*921 p2\.dpa\.button_hist\[4\]
*922 p2\.dpa\.button_hist\[5\]
*923 p2\.dpa\.button_hist\[6\]
*924 p2\.dpa\.button_hist\[7\]
*925 p2\.dpb\.button_hist\[0\]
*926 p2\.dpb\.button_hist\[1\]
*927 p2\.dpb\.button_hist\[2\]
*928 p2\.dpb\.button_hist\[3\]
*929 p2\.dpb\.button_hist\[4\]
*930 p2\.dpb\.button_hist\[5\]
*931 p2\.dpb\.button_hist\[6\]
*932 p2\.dpb\.button_hist\[7\]
*933 p2\.enc\.old_a
*934 p2\.enc\.old_b
*935 p2\.enc\.value\[0\]
*936 p2\.enc\.value\[1\]
*937 p2\.enc\.value\[2\]
*938 p2\.enc\.value\[3\]
*939 p2\.enc\.value\[4\]
*940 p2\.enc\.value\[5\]
*941 p2\.enc\.value\[6\]
*942 p2\.enc\.value\[7\]
*943 p2\.enc\.value\[8\]
*944 pong\.ball_h_dir
*945 pong\.ball_hpos\[2\]
*946 pong\.ball_hpos\[3\]
*947 pong\.ball_hpos\[4\]
*948 pong\.ball_hpos\[5\]
*949 pong\.ball_hpos\[6\]
*950 pong\.ball_hpos\[7\]
*951 pong\.ball_hpos\[8\]
*952 pong\.ball_hpos\[9\]
*953 pong\.ball_v_dir
*954 pong\.ball_vpos\[2\]
*955 pong\.ball_vpos\[3\]
*956 pong\.ball_vpos\[4\]
*957 pong\.ball_vpos\[5\]
*958 pong\.ball_vpos\[6\]
*959 pong\.ball_vpos\[7\]
*960 pong\.ball_vpos\[8\]
*961 pong\.ball_vpos\[9\]
*962 pong\.paddle1_vpos\[0\]
*963 pong\.paddle1_vpos\[1\]
*964 pong\.paddle1_vpos\[2\]
*965 pong\.paddle1_vpos\[3\]
*966 pong\.paddle1_vpos\[4\]
*967 pong\.paddle1_vpos\[5\]
*968 pong\.paddle1_vpos\[6\]
*969 pong\.paddle1_vpos\[7\]
*970 pong\.paddle1_vpos\[8\]
*971 pong\.paddle2_vpos\[0\]
*972 pong\.paddle2_vpos\[1\]
*973 pong\.paddle2_vpos\[2\]
*974 pong\.paddle2_vpos\[3\]
*975 pong\.paddle2_vpos\[4\]
*976 pong\.paddle2_vpos\[5\]
*977 pong\.paddle2_vpos\[6\]
*978 pong\.paddle2_vpos\[7\]
*979 pong\.paddle2_vpos\[8\]
*980 pong\.pixel
*981 pong\.updated_this_frame
*982 FILLER_0_0_105
*983 FILLER_0_0_111
*984 FILLER_0_0_113
*985 FILLER_0_0_121
*986 FILLER_0_0_130
*987 FILLER_0_0_138
*988 FILLER_0_0_141
*989 FILLER_0_0_15
*990 FILLER_0_0_153
*991 FILLER_0_0_165
*992 FILLER_0_0_169
*993 FILLER_0_0_189
*994 FILLER_0_0_195
*995 FILLER_0_0_197
*996 FILLER_0_0_208
*997 FILLER_0_0_220
*998 FILLER_0_0_225
*999 FILLER_0_0_237
*1000 FILLER_0_0_249
*1001 FILLER_0_0_253
*1002 FILLER_0_0_265
*1003 FILLER_0_0_27
*1004 FILLER_0_0_277
*1005 FILLER_0_0_281
*1006 FILLER_0_0_29
*1007 FILLER_0_0_293
*1008 FILLER_0_0_3
*1009 FILLER_0_0_305
*1010 FILLER_0_0_309
*1011 FILLER_0_0_321
*1012 FILLER_0_0_333
*1013 FILLER_0_0_41
*1014 FILLER_0_0_53
*1015 FILLER_0_0_57
*1016 FILLER_0_0_74
*1017 FILLER_0_0_83
*1018 FILLER_0_0_93
*1019 FILLER_0_10_108
*1020 FILLER_0_10_116
*1021 FILLER_0_10_120
*1022 FILLER_0_10_131
*1023 FILLER_0_10_139
*1024 FILLER_0_10_141
*1025 FILLER_0_10_15
*1026 FILLER_0_10_153
*1027 FILLER_0_10_163
*1028 FILLER_0_10_174
*1029 FILLER_0_10_180
*1030 FILLER_0_10_194
*1031 FILLER_0_10_197
*1032 FILLER_0_10_209
*1033 FILLER_0_10_221
*1034 FILLER_0_10_233
*1035 FILLER_0_10_241
*1036 FILLER_0_10_246
*1037 FILLER_0_10_253
*1038 FILLER_0_10_265
*1039 FILLER_0_10_27
*1040 FILLER_0_10_287
*1041 FILLER_0_10_29
*1042 FILLER_0_10_299
*1043 FILLER_0_10_3
*1044 FILLER_0_10_307
*1045 FILLER_0_10_309
*1046 FILLER_0_10_321
*1047 FILLER_0_10_333
*1048 FILLER_0_10_34
*1049 FILLER_0_10_46
*1050 FILLER_0_10_58
*1051 FILLER_0_10_70
*1052 FILLER_0_10_82
*1053 FILLER_0_10_85
*1054 FILLER_0_10_96
*1055 FILLER_0_11_106
*1056 FILLER_0_11_113
*1057 FILLER_0_11_130
*1058 FILLER_0_11_139
*1059 FILLER_0_11_147
*1060 FILLER_0_11_163
*1061 FILLER_0_11_167
*1062 FILLER_0_11_176
*1063 FILLER_0_11_204
*1064 FILLER_0_11_216
*1065 FILLER_0_11_23
*1066 FILLER_0_11_237
*1067 FILLER_0_11_249
*1068 FILLER_0_11_261
*1069 FILLER_0_11_273
*1070 FILLER_0_11_279
*1071 FILLER_0_11_3
*1072 FILLER_0_11_303
*1073 FILLER_0_11_308
*1074 FILLER_0_11_320
*1075 FILLER_0_11_332
*1076 FILLER_0_11_43
*1077 FILLER_0_11_55
*1078 FILLER_0_11_73
*1079 FILLER_0_11_81
*1080 FILLER_0_11_89
*1081 FILLER_0_12_100
*1082 FILLER_0_12_138
*1083 FILLER_0_12_146
*1084 FILLER_0_12_157
*1085 FILLER_0_12_169
*1086 FILLER_0_12_181
*1087 FILLER_0_12_194
*1088 FILLER_0_12_202
*1089 FILLER_0_12_210
*1090 FILLER_0_12_239
*1091 FILLER_0_12_251
*1092 FILLER_0_12_253
*1093 FILLER_0_12_265
*1094 FILLER_0_12_273
*1095 FILLER_0_12_285
*1096 FILLER_0_12_3
*1097 FILLER_0_12_306
*1098 FILLER_0_12_322
*1099 FILLER_0_12_334
*1100 FILLER_0_12_42
*1101 FILLER_0_12_73
*1102 FILLER_0_12_78
*1103 FILLER_0_12_85
*1104 FILLER_0_12_91
*1105 FILLER_0_13_100
*1106 FILLER_0_13_108
*1107 FILLER_0_13_113
*1108 FILLER_0_13_123
*1109 FILLER_0_13_142
*1110 FILLER_0_13_154
*1111 FILLER_0_13_166
*1112 FILLER_0_13_169
*1113 FILLER_0_13_181
*1114 FILLER_0_13_190
*1115 FILLER_0_13_200
*1116 FILLER_0_13_207
*1117 FILLER_0_13_231
*1118 FILLER_0_13_240
*1119 FILLER_0_13_27
*1120 FILLER_0_13_270
*1121 FILLER_0_13_278
*1122 FILLER_0_13_281
*1123 FILLER_0_13_3
*1124 FILLER_0_13_305
*1125 FILLER_0_13_329
*1126 FILLER_0_13_46
*1127 FILLER_0_13_57
*1128 FILLER_0_13_76
*1129 FILLER_0_13_84
*1130 FILLER_0_14_107
*1131 FILLER_0_14_11
*1132 FILLER_0_14_115
*1133 FILLER_0_14_123
*1134 FILLER_0_14_134
*1135 FILLER_0_14_141
*1136 FILLER_0_14_161
*1137 FILLER_0_14_166
*1138 FILLER_0_14_178
*1139 FILLER_0_14_19
*1140 FILLER_0_14_190
*1141 FILLER_0_14_197
*1142 FILLER_0_14_203
*1143 FILLER_0_14_217
*1144 FILLER_0_14_225
*1145 FILLER_0_14_238
*1146 FILLER_0_14_244
*1147 FILLER_0_14_253
*1148 FILLER_0_14_27
*1149 FILLER_0_14_275
*1150 FILLER_0_14_287
*1151 FILLER_0_14_29
*1152 FILLER_0_14_299
*1153 FILLER_0_14_3
*1154 FILLER_0_14_307
*1155 FILLER_0_14_329
*1156 FILLER_0_14_37
*1157 FILLER_0_14_45
*1158 FILLER_0_14_64
*1159 FILLER_0_14_80
*1160 FILLER_0_14_85
*1161 FILLER_0_14_95
*1162 FILLER_0_15_100
*1163 FILLER_0_15_109
*1164 FILLER_0_15_113
*1165 FILLER_0_15_119
*1166 FILLER_0_15_128
*1167 FILLER_0_15_140
*1168 FILLER_0_15_15
*1169 FILLER_0_15_153
*1170 FILLER_0_15_167
*1171 FILLER_0_15_186
*1172 FILLER_0_15_194
*1173 FILLER_0_15_202
*1174 FILLER_0_15_208
*1175 FILLER_0_15_22
*1176 FILLER_0_15_220
*1177 FILLER_0_15_225
*1178 FILLER_0_15_237
*1179 FILLER_0_15_249
*1180 FILLER_0_15_269
*1181 FILLER_0_15_276
*1182 FILLER_0_15_281
*1183 FILLER_0_15_293
*1184 FILLER_0_15_3
*1185 FILLER_0_15_31
*1186 FILLER_0_15_317
*1187 FILLER_0_15_329
*1188 FILLER_0_15_35
*1189 FILLER_0_15_51
*1190 FILLER_0_15_55
*1191 FILLER_0_15_75
*1192 FILLER_0_15_81
*1193 FILLER_0_15_92
*1194 FILLER_0_16_105
*1195 FILLER_0_16_113
*1196 FILLER_0_16_136
*1197 FILLER_0_16_146
*1198 FILLER_0_16_150
*1199 FILLER_0_16_163
*1200 FILLER_0_16_178
*1201 FILLER_0_16_190
*1202 FILLER_0_16_197
*1203 FILLER_0_16_205
*1204 FILLER_0_16_216
*1205 FILLER_0_16_228
*1206 FILLER_0_16_232
*1207 FILLER_0_16_239
*1208 FILLER_0_16_251
*1209 FILLER_0_16_253
*1210 FILLER_0_16_26
*1211 FILLER_0_16_265
*1212 FILLER_0_16_269
*1213 FILLER_0_16_284
*1214 FILLER_0_16_296
*1215 FILLER_0_16_3
*1216 FILLER_0_16_309
*1217 FILLER_0_16_313
*1218 FILLER_0_16_325
*1219 FILLER_0_16_333
*1220 FILLER_0_16_56
*1221 FILLER_0_16_73
*1222 FILLER_0_16_9
*1223 FILLER_0_16_93
*1224 FILLER_0_17_113
*1225 FILLER_0_17_144
*1226 FILLER_0_17_156
*1227 FILLER_0_17_176
*1228 FILLER_0_17_188
*1229 FILLER_0_17_200
*1230 FILLER_0_17_220
*1231 FILLER_0_17_225
*1232 FILLER_0_17_249
*1233 FILLER_0_17_261
*1234 FILLER_0_17_267
*1235 FILLER_0_17_279
*1236 FILLER_0_17_290
*1237 FILLER_0_17_304
*1238 FILLER_0_17_316
*1239 FILLER_0_17_328
*1240 FILLER_0_17_334
*1241 FILLER_0_17_45
*1242 FILLER_0_17_53
*1243 FILLER_0_17_57
*1244 FILLER_0_17_61
*1245 FILLER_0_17_65
*1246 FILLER_0_17_76
*1247 FILLER_0_17_88
*1248 FILLER_0_17_94
*1249 FILLER_0_18_111
*1250 FILLER_0_18_120
*1251 FILLER_0_18_132
*1252 FILLER_0_18_141
*1253 FILLER_0_18_153
*1254 FILLER_0_18_183
*1255 FILLER_0_18_195
*1256 FILLER_0_18_197
*1257 FILLER_0_18_221
*1258 FILLER_0_18_248
*1259 FILLER_0_18_253
*1260 FILLER_0_18_265
*1261 FILLER_0_18_27
*1262 FILLER_0_18_3
*1263 FILLER_0_18_327
*1264 FILLER_0_18_37
*1265 FILLER_0_18_41
*1266 FILLER_0_18_50
*1267 FILLER_0_18_62
*1268 FILLER_0_18_7
*1269 FILLER_0_18_74
*1270 FILLER_0_18_82
*1271 FILLER_0_18_85
*1272 FILLER_0_19_107
*1273 FILLER_0_19_11
*1274 FILLER_0_19_121
*1275 FILLER_0_19_132
*1276 FILLER_0_19_140
*1277 FILLER_0_19_148
*1278 FILLER_0_19_16
*1279 FILLER_0_19_185
*1280 FILLER_0_19_197
*1281 FILLER_0_19_203
*1282 FILLER_0_19_215
*1283 FILLER_0_19_225
*1284 FILLER_0_19_233
*1285 FILLER_0_19_244
*1286 FILLER_0_19_256
*1287 FILLER_0_19_268
*1288 FILLER_0_19_278
*1289 FILLER_0_19_28
*1290 FILLER_0_19_292
*1291 FILLER_0_19_3
*1292 FILLER_0_19_300
*1293 FILLER_0_19_328
*1294 FILLER_0_19_334
*1295 FILLER_0_19_40
*1296 FILLER_0_19_52
*1297 FILLER_0_19_57
*1298 FILLER_0_19_76
*1299 FILLER_0_19_88
*1300 FILLER_0_19_96
*1301 FILLER_0_1_103
*1302 FILLER_0_1_111
*1303 FILLER_0_1_126
*1304 FILLER_0_1_15
*1305 FILLER_0_1_153
*1306 FILLER_0_1_159
*1307 FILLER_0_1_167
*1308 FILLER_0_1_169
*1309 FILLER_0_1_189
*1310 FILLER_0_1_222
*1311 FILLER_0_1_225
*1312 FILLER_0_1_235
*1313 FILLER_0_1_247
*1314 FILLER_0_1_259
*1315 FILLER_0_1_27
*1316 FILLER_0_1_271
*1317 FILLER_0_1_279
*1318 FILLER_0_1_281
*1319 FILLER_0_1_293
*1320 FILLER_0_1_3
*1321 FILLER_0_1_305
*1322 FILLER_0_1_317
*1323 FILLER_0_1_329
*1324 FILLER_0_1_39
*1325 FILLER_0_1_51
*1326 FILLER_0_1_55
*1327 FILLER_0_1_57
*1328 FILLER_0_1_73
*1329 FILLER_0_20_117
*1330 FILLER_0_20_149
*1331 FILLER_0_20_15
*1332 FILLER_0_20_157
*1333 FILLER_0_20_167
*1334 FILLER_0_20_192
*1335 FILLER_0_20_197
*1336 FILLER_0_20_204
*1337 FILLER_0_20_213
*1338 FILLER_0_20_225
*1339 FILLER_0_20_237
*1340 FILLER_0_20_243
*1341 FILLER_0_20_261
*1342 FILLER_0_20_27
*1343 FILLER_0_20_273
*1344 FILLER_0_20_277
*1345 FILLER_0_20_286
*1346 FILLER_0_20_298
*1347 FILLER_0_20_3
*1348 FILLER_0_20_321
*1349 FILLER_0_20_333
*1350 FILLER_0_20_45
*1351 FILLER_0_20_57
*1352 FILLER_0_20_85
*1353 FILLER_0_21_11
*1354 FILLER_0_21_131
*1355 FILLER_0_21_137
*1356 FILLER_0_21_147
*1357 FILLER_0_21_160
*1358 FILLER_0_21_169
*1359 FILLER_0_21_183
*1360 FILLER_0_21_195
*1361 FILLER_0_21_221
*1362 FILLER_0_21_225
*1363 FILLER_0_21_256
*1364 FILLER_0_21_268
*1365 FILLER_0_21_297
*1366 FILLER_0_21_3
*1367 FILLER_0_21_309
*1368 FILLER_0_21_322
*1369 FILLER_0_21_334
*1370 FILLER_0_21_35
*1371 FILLER_0_21_50
*1372 FILLER_0_21_57
*1373 FILLER_0_21_82
*1374 FILLER_0_21_91
*1375 FILLER_0_22_124
*1376 FILLER_0_22_136
*1377 FILLER_0_22_157
*1378 FILLER_0_22_169
*1379 FILLER_0_22_179
*1380 FILLER_0_22_191
*1381 FILLER_0_22_197
*1382 FILLER_0_22_228
*1383 FILLER_0_22_253
*1384 FILLER_0_22_265
*1385 FILLER_0_22_269
*1386 FILLER_0_22_29
*1387 FILLER_0_22_298
*1388 FILLER_0_22_3
*1389 FILLER_0_22_306
*1390 FILLER_0_22_328
*1391 FILLER_0_22_334
*1392 FILLER_0_22_52
*1393 FILLER_0_22_58
*1394 FILLER_0_22_67
*1395 FILLER_0_22_75
*1396 FILLER_0_23_101
*1397 FILLER_0_23_11
*1398 FILLER_0_23_111
*1399 FILLER_0_23_113
*1400 FILLER_0_23_121
*1401 FILLER_0_23_128
*1402 FILLER_0_23_140
*1403 FILLER_0_23_16
*1404 FILLER_0_23_162
*1405 FILLER_0_23_169
*1406 FILLER_0_23_187
*1407 FILLER_0_23_220
*1408 FILLER_0_23_225
*1409 FILLER_0_23_241
*1410 FILLER_0_23_266
*1411 FILLER_0_23_27
*1412 FILLER_0_23_279
*1413 FILLER_0_23_281
*1414 FILLER_0_23_3
*1415 FILLER_0_23_309
*1416 FILLER_0_23_321
*1417 FILLER_0_23_333
*1418 FILLER_0_23_35
*1419 FILLER_0_23_45
*1420 FILLER_0_23_55
*1421 FILLER_0_23_57
*1422 FILLER_0_23_69
*1423 FILLER_0_23_81
*1424 FILLER_0_23_93
*1425 FILLER_0_24_109
*1426 FILLER_0_24_121
*1427 FILLER_0_24_133
*1428 FILLER_0_24_139
*1429 FILLER_0_24_149
*1430 FILLER_0_24_15
*1431 FILLER_0_24_155
*1432 FILLER_0_24_165
*1433 FILLER_0_24_190
*1434 FILLER_0_24_197
*1435 FILLER_0_24_207
*1436 FILLER_0_24_219
*1437 FILLER_0_24_235
*1438 FILLER_0_24_253
*1439 FILLER_0_24_265
*1440 FILLER_0_24_27
*1441 FILLER_0_24_277
*1442 FILLER_0_24_285
*1443 FILLER_0_24_29
*1444 FILLER_0_24_3
*1445 FILLER_0_24_305
*1446 FILLER_0_24_309
*1447 FILLER_0_24_328
*1448 FILLER_0_24_334
*1449 FILLER_0_24_41
*1450 FILLER_0_24_45
*1451 FILLER_0_24_52
*1452 FILLER_0_24_61
*1453 FILLER_0_24_73
*1454 FILLER_0_24_81
*1455 FILLER_0_24_85
*1456 FILLER_0_24_97
*1457 FILLER_0_25_11
*1458 FILLER_0_25_120
*1459 FILLER_0_25_124
*1460 FILLER_0_25_149
*1461 FILLER_0_25_157
*1462 FILLER_0_25_18
*1463 FILLER_0_25_195
*1464 FILLER_0_25_215
*1465 FILLER_0_25_250
*1466 FILLER_0_25_262
*1467 FILLER_0_25_27
*1468 FILLER_0_25_270
*1469 FILLER_0_25_278
*1470 FILLER_0_25_281
*1471 FILLER_0_25_293
*1472 FILLER_0_25_3
*1473 FILLER_0_25_305
*1474 FILLER_0_25_311
*1475 FILLER_0_25_324
*1476 FILLER_0_25_332
*1477 FILLER_0_25_54
*1478 FILLER_0_25_61
*1479 FILLER_0_25_69
*1480 FILLER_0_25_93
*1481 FILLER_0_26_100
*1482 FILLER_0_26_132
*1483 FILLER_0_26_141
*1484 FILLER_0_26_153
*1485 FILLER_0_26_157
*1486 FILLER_0_26_188
*1487 FILLER_0_26_192
*1488 FILLER_0_26_208
*1489 FILLER_0_26_216
*1490 FILLER_0_26_244
*1491 FILLER_0_26_253
*1492 FILLER_0_26_26
*1493 FILLER_0_26_261
*1494 FILLER_0_26_29
*1495 FILLER_0_26_294
*1496 FILLER_0_26_3
*1497 FILLER_0_26_306
*1498 FILLER_0_26_309
*1499 FILLER_0_26_329
*1500 FILLER_0_26_82
*1501 FILLER_0_27_103
*1502 FILLER_0_27_134
*1503 FILLER_0_27_146
*1504 FILLER_0_27_15
*1505 FILLER_0_27_158
*1506 FILLER_0_27_166
*1507 FILLER_0_27_193
*1508 FILLER_0_27_213
*1509 FILLER_0_27_221
*1510 FILLER_0_27_225
*1511 FILLER_0_27_23
*1512 FILLER_0_27_236
*1513 FILLER_0_27_243
*1514 FILLER_0_27_255
*1515 FILLER_0_27_260
*1516 FILLER_0_27_279
*1517 FILLER_0_27_281
*1518 FILLER_0_27_3
*1519 FILLER_0_27_300
*1520 FILLER_0_27_304
*1521 FILLER_0_27_316
*1522 FILLER_0_27_328
*1523 FILLER_0_27_334
*1524 FILLER_0_27_35
*1525 FILLER_0_27_55
*1526 FILLER_0_27_57
*1527 FILLER_0_27_65
*1528 FILLER_0_27_91
*1529 FILLER_0_28_133
*1530 FILLER_0_28_139
*1531 FILLER_0_28_141
*1532 FILLER_0_28_165
*1533 FILLER_0_28_177
*1534 FILLER_0_28_189
*1535 FILLER_0_28_195
*1536 FILLER_0_28_221
*1537 FILLER_0_28_233
*1538 FILLER_0_28_244
*1539 FILLER_0_28_253
*1540 FILLER_0_28_26
*1541 FILLER_0_28_265
*1542 FILLER_0_28_287
*1543 FILLER_0_28_29
*1544 FILLER_0_28_299
*1545 FILLER_0_28_3
*1546 FILLER_0_28_307
*1547 FILLER_0_28_326
*1548 FILLER_0_28_334
*1549 FILLER_0_28_41
*1550 FILLER_0_28_54
*1551 FILLER_0_28_83
*1552 FILLER_0_28_85
*1553 FILLER_0_29_105
*1554 FILLER_0_29_11
*1555 FILLER_0_29_111
*1556 FILLER_0_29_113
*1557 FILLER_0_29_148
*1558 FILLER_0_29_152
*1559 FILLER_0_29_167
*1560 FILLER_0_29_177
*1561 FILLER_0_29_193
*1562 FILLER_0_29_217
*1563 FILLER_0_29_223
*1564 FILLER_0_29_241
*1565 FILLER_0_29_265
*1566 FILLER_0_29_279
*1567 FILLER_0_29_295
*1568 FILLER_0_29_3
*1569 FILLER_0_29_307
*1570 FILLER_0_29_328
*1571 FILLER_0_29_334
*1572 FILLER_0_29_36
*1573 FILLER_0_29_40
*1574 FILLER_0_29_47
*1575 FILLER_0_29_55
*1576 FILLER_0_29_57
*1577 FILLER_0_29_93
*1578 FILLER_0_2_111
*1579 FILLER_0_2_115
*1580 FILLER_0_2_149
*1581 FILLER_0_2_15
*1582 FILLER_0_2_171
*1583 FILLER_0_2_175
*1584 FILLER_0_2_183
*1585 FILLER_0_2_195
*1586 FILLER_0_2_197
*1587 FILLER_0_2_221
*1588 FILLER_0_2_241
*1589 FILLER_0_2_249
*1590 FILLER_0_2_253
*1591 FILLER_0_2_265
*1592 FILLER_0_2_27
*1593 FILLER_0_2_277
*1594 FILLER_0_2_289
*1595 FILLER_0_2_29
*1596 FILLER_0_2_3
*1597 FILLER_0_2_301
*1598 FILLER_0_2_307
*1599 FILLER_0_2_309
*1600 FILLER_0_2_321
*1601 FILLER_0_2_333
*1602 FILLER_0_2_41
*1603 FILLER_0_2_53
*1604 FILLER_0_2_65
*1605 FILLER_0_2_85
*1606 FILLER_0_30_101
*1607 FILLER_0_30_113
*1608 FILLER_0_30_138
*1609 FILLER_0_30_141
*1610 FILLER_0_30_145
*1611 FILLER_0_30_149
*1612 FILLER_0_30_15
*1613 FILLER_0_30_192
*1614 FILLER_0_30_224
*1615 FILLER_0_30_240
*1616 FILLER_0_30_246
*1617 FILLER_0_30_253
*1618 FILLER_0_30_27
*1619 FILLER_0_30_294
*1620 FILLER_0_30_3
*1621 FILLER_0_30_307
*1622 FILLER_0_30_332
*1623 FILLER_0_30_41
*1624 FILLER_0_30_53
*1625 FILLER_0_30_71
*1626 FILLER_0_30_80
*1627 FILLER_0_30_85
*1628 FILLER_0_31_113
*1629 FILLER_0_31_139
*1630 FILLER_0_31_150
*1631 FILLER_0_31_162
*1632 FILLER_0_31_169
*1633 FILLER_0_31_177
*1634 FILLER_0_31_22
*1635 FILLER_0_31_222
*1636 FILLER_0_31_242
*1637 FILLER_0_31_254
*1638 FILLER_0_31_297
*1639 FILLER_0_31_3
*1640 FILLER_0_31_305
*1641 FILLER_0_31_328
*1642 FILLER_0_31_334
*1643 FILLER_0_31_65
*1644 FILLER_0_31_83
*1645 FILLER_0_32_101
*1646 FILLER_0_32_113
*1647 FILLER_0_32_130
*1648 FILLER_0_32_138
*1649 FILLER_0_32_141
*1650 FILLER_0_32_147
*1651 FILLER_0_32_173
*1652 FILLER_0_32_192
*1653 FILLER_0_32_197
*1654 FILLER_0_32_233
*1655 FILLER_0_32_245
*1656 FILLER_0_32_251
*1657 FILLER_0_32_253
*1658 FILLER_0_32_257
*1659 FILLER_0_32_264
*1660 FILLER_0_32_27
*1661 FILLER_0_32_276
*1662 FILLER_0_32_288
*1663 FILLER_0_32_29
*1664 FILLER_0_32_3
*1665 FILLER_0_32_300
*1666 FILLER_0_32_309
*1667 FILLER_0_32_316
*1668 FILLER_0_32_328
*1669 FILLER_0_32_334
*1670 FILLER_0_32_37
*1671 FILLER_0_32_58
*1672 FILLER_0_32_67
*1673 FILLER_0_32_7
*1674 FILLER_0_32_74
*1675 FILLER_0_32_78
*1676 FILLER_0_33_110
*1677 FILLER_0_33_113
*1678 FILLER_0_33_117
*1679 FILLER_0_33_122
*1680 FILLER_0_33_132
*1681 FILLER_0_33_144
*1682 FILLER_0_33_148
*1683 FILLER_0_33_160
*1684 FILLER_0_33_169
*1685 FILLER_0_33_181
*1686 FILLER_0_33_193
*1687 FILLER_0_33_205
*1688 FILLER_0_33_217
*1689 FILLER_0_33_223
*1690 FILLER_0_33_225
*1691 FILLER_0_33_237
*1692 FILLER_0_33_248
*1693 FILLER_0_33_255
*1694 FILLER_0_33_267
*1695 FILLER_0_33_27
*1696 FILLER_0_33_271
*1697 FILLER_0_33_275
*1698 FILLER_0_33_279
*1699 FILLER_0_33_281
*1700 FILLER_0_33_289
*1701 FILLER_0_33_294
*1702 FILLER_0_33_298
*1703 FILLER_0_33_3
*1704 FILLER_0_33_304
*1705 FILLER_0_33_308
*1706 FILLER_0_33_330
*1707 FILLER_0_33_334
*1708 FILLER_0_33_40
*1709 FILLER_0_33_57
*1710 FILLER_0_33_69
*1711 FILLER_0_33_98
*1712 FILLER_0_34_105
*1713 FILLER_0_34_117
*1714 FILLER_0_34_129
*1715 FILLER_0_34_137
*1716 FILLER_0_34_141
*1717 FILLER_0_34_15
*1718 FILLER_0_34_152
*1719 FILLER_0_34_210
*1720 FILLER_0_34_222
*1721 FILLER_0_34_228
*1722 FILLER_0_34_248
*1723 FILLER_0_34_258
*1724 FILLER_0_34_270
*1725 FILLER_0_34_282
*1726 FILLER_0_34_286
*1727 FILLER_0_34_29