*SPEF "ieee 1481-1999"
*DESIGN "tt_um_dlmiles_muldiv8"
*DATE "19:12:28 Thursday April 18, 2024"
*VENDOR "The OpenROAD Project"
*PROGRAM "OpenROAD"
*VERSION "0889970d1790a2617e69f253221b8bd7626e51dc"
*DESIGN_FLOW "NAME_SCOPE LOCAL" "PIN_CAP NONE"
*DIVIDER /
*DELIMITER :
*BUS_DELIMITER []
*T_UNIT 1 NS
*C_UNIT 1 PF
*R_UNIT 1 OHM
*L_UNIT 1 HENRY

*NAME_MAP
*3 clk
*4 ena
*5 rst_n
*6 ui_in[0]
*7 ui_in[1]
*8 ui_in[2]
*9 ui_in[3]
*10 ui_in[4]
*11 ui_in[5]
*12 ui_in[6]
*13 ui_in[7]
*14 uio_in[0]
*15 uio_in[1]
*16 uio_in[2]
*17 uio_in[3]
*18 uio_in[4]
*19 uio_in[5]
*20 uio_in[6]
*21 uio_in[7]
*22 net17
*23 net18
*24 net19
*25 net20
*26 net30
*27 net31
*28 net21
*29 net22
*30 net23
*31 net24
*32 net25
*33 net26
*34 uio_out[4]
*35 uio_out[5]
*36 net27
*37 net28
*38 uo_out[0]
*39 uo_out[1]
*40 uo_out[2]
*41 uo_out[3]
*42 uo_out[4]
*43 uo_out[5]
*44 uo_out[6]
*45 uo_out[7]
*46 _0001_
*47 _0002_
*48 _0003_
*49 _0004_
*50 _0005_
*51 _0006_
*52 _0007_
*53 _0008_
*54 _0009_
*55 _0010_
*56 _0011_
*57 _0012_
*58 _0013_
*59 _0014_
*60 _0015_
*61 _0016_
*62 _0017_
*63 _0018_
*64 _0019_
*65 _0020_
*66 _0021_
*67 _0022_
*68 _0023_
*69 _0024_
*70 _0025_
*71 _0026_
*72 _0027_
*73 _0028_
*74 _0029_
*75 _0030_
*76 _0031_
*77 _0032_
*78 _0033_
*79 _0034_
*80 _0035_
*81 _0036_
*82 _0037_
*83 _0038_
*84 _0039_
*85 _0040_
*86 _0041_
*87 _0042_
*88 _0043_
*89 _0044_
*90 _0045_
*91 _0046_
*92 _0047_
*93 _0048_
*94 _0049_
*95 _0050_
*96 _0051_
*97 _0052_
*98 _0053_
*99 _0054_
*100 _0055_
*101 _0056_
*102 _0057_
*103 _0058_
*104 _0059_
*105 _0060_
*106 _0061_
*107 _0062_
*108 _0063_
*109 _0064_
*110 _0065_
*111 _0066_
*112 _0067_
*113 _0068_
*114 _0069_
*115 _0070_
*116 _0071_
*117 _0072_
*118 _0073_
*119 _0074_
*120 _0075_
*121 _0076_
*122 _0077_
*123 _0078_
*124 _0079_
*125 _0080_
*126 _0081_
*127 _0082_
*128 _0083_
*129 _0084_
*130 _0085_
*131 _0086_
*132 _0087_
*133 _0088_
*134 _0089_
*135 _0090_
*136 _0091_
*137 _0092_
*138 _0093_
*139 _0094_
*140 _0095_
*141 _0096_
*142 _0097_
*143 _0098_
*144 _0099_
*145 _0100_
*146 _0101_
*147 _0102_
*148 _0103_
*149 _0104_
*150 _0105_
*151 _0106_
*152 _0107_
*153 _0108_
*154 _0109_
*155 _0110_
*156 _0111_
*157 _0112_
*158 _0113_
*159 _0114_
*160 _0115_
*161 _0116_
*162 _0117_
*163 _0118_
*164 _0119_
*165 _0120_
*166 _0121_
*167 _0122_
*168 _0123_
*169 _0124_
*170 _0125_
*171 _0126_
*172 _0127_
*173 _0128_
*174 _0129_
*175 _0130_
*176 _0131_
*177 _0132_
*178 _0133_
*179 _0134_
*180 _0135_
*181 _0136_
*182 _0137_
*183 _0138_
*184 _0139_
*185 _0140_
*186 _0141_
*187 _0142_
*188 _0143_
*189 _0144_
*190 _0145_
*191 _0146_
*192 _0147_
*193 _0148_
*194 _0149_
*195 _0150_
*196 _0151_
*197 _0152_
*198 _0153_
*199 _0154_
*200 _0155_
*201 _0156_
*202 _0157_
*203 _0158_
*204 _0159_
*205 _0160_
*206 _0161_
*207 _0162_
*208 _0163_
*209 _0164_
*210 _0165_
*211 _0166_
*212 _0167_
*213 _0168_
*214 _0169_
*215 _0170_
*216 _0171_
*217 _0172_
*218 _0173_
*219 _0174_
*220 _0175_
*221 _0176_
*222 _0177_
*223 _0178_
*224 _0179_
*225 _0180_
*226 _0181_
*227 _0182_
*228 _0183_
*229 _0184_
*230 _0185_
*231 _0186_
*232 _0187_
*233 _0188_
*234 _0189_
*235 _0190_
*236 _0191_
*237 _0192_
*238 _0193_
*239 _0194_
*240 _0195_
*241 _0196_
*242 _0197_
*243 _0198_
*244 _0199_
*245 _0200_
*246 _0201_
*247 _0202_
*248 _0203_
*249 _0204_
*250 _0205_
*251 _0206_
*252 _0207_
*253 _0208_
*254 _0209_
*255 _0210_
*256 _0211_
*257 _0212_
*258 _0213_
*259 _0214_
*260 _0215_
*261 _0216_
*262 _0217_
*263 _0218_
*264 _0219_
*265 _0220_
*266 _0221_
*267 _0222_
*268 _0223_
*269 _0224_
*270 _0225_
*271 _0226_
*272 _0227_
*273 _0228_
*274 _0229_
*275 _0230_
*276 _0231_
*277 _0232_
*278 _0233_
*279 _0234_
*280 _0235_
*281 _0236_
*282 _0237_
*283 _0238_
*284 _0239_
*285 _0240_
*286 _0241_
*287 _0242_
*288 _0243_
*289 _0244_
*290 _0245_
*291 _0246_
*292 _0247_
*293 _0248_
*294 _0249_
*295 _0250_
*296 _0251_
*297 _0252_
*298 _0253_
*299 _0254_
*300 _0255_
*301 _0256_
*302 _0257_
*303 _0258_
*304 _0259_
*305 _0260_
*306 _0261_
*307 _0262_
*308 _0263_
*309 _0264_
*310 _0265_
*311 _0266_
*312 _0267_
*313 _0268_
*314 _0269_
*315 _0270_
*316 _0271_
*317 _0272_
*318 _0273_
*319 _0274_
*320 _0275_
*321 _0276_
*322 _0277_
*323 _0278_
*324 _0279_
*325 _0280_
*326 _0281_
*327 _0282_
*328 _0283_
*329 _0284_
*330 _0285_
*331 _0286_
*332 _0287_
*333 _0288_
*334 _0289_
*335 _0290_
*336 _0291_
*337 _0292_
*338 _0293_
*339 _0294_
*340 _0295_
*341 _0296_
*342 _0297_
*343 _0298_
*344 _0299_
*345 _0300_
*346 _0301_
*347 _0302_
*348 _0303_
*349 _0304_
*350 _0305_
*351 _0306_
*352 _0307_
*353 _0308_
*354 _0309_
*355 _0310_
*356 _0311_
*357 _0312_
*358 _0313_
*359 _0314_
*360 _0315_
*361 _0316_
*362 _0317_
*363 _0318_
*364 _0319_
*365 _0320_
*366 _0321_
*367 _0322_
*368 _0323_
*369 _0324_
*370 _0325_
*371 _0326_
*372 _0327_
*373 _0328_
*374 _0329_
*375 _0330_
*376 _0331_
*377 _0332_
*378 _0333_
*379 _0334_
*380 _0335_
*381 _0336_
*382 _0337_
*383 _0338_
*384 _0339_
*385 _0340_
*386 _0341_
*387 _0342_
*388 _0343_
*389 _0344_
*390 _0345_
*391 _0346_
*392 _0347_
*393 _0348_
*394 _0349_
*395 _0350_
*396 _0351_
*397 _0352_
*398 _0353_
*399 _0354_
*400 _0355_
*401 _0356_
*402 _0357_
*403 _0358_
*404 _0359_
*405 _0360_
*406 _0361_
*407 _0362_
*408 _0363_
*409 _0364_
*410 _0365_
*411 _0366_
*412 _0367_
*413 _0368_
*414 _0369_
*415 _0370_
*416 _0371_
*417 _0372_
*418 _0373_
*419 _0374_
*420 _0375_
*421 _0376_
*422 _0377_
*423 _0378_
*424 _0379_
*425 _0380_
*426 _0381_
*427 _0382_
*428 _0383_
*429 _0384_
*430 _0385_
*431 _0386_
*432 _0387_
*433 _0388_
*434 _0389_
*435 _0390_
*436 _0391_
*437 _0392_
*438 _0393_
*439 _0394_
*440 _0395_
*441 _0396_
*442 _0397_
*443 _0398_
*444 _0399_
*445 _0400_
*446 _0401_
*447 _0402_
*448 _0403_
*449 _0404_
*450 _0405_
*451 _0406_
*452 _0407_
*453 _0408_
*454 _0409_
*455 _0410_
*456 _0411_
*457 _0412_
*458 _0413_
*459 _0414_
*460 _0415_
*461 _0416_
*462 _0417_
*463 _0418_
*464 _0419_
*465 _0420_
*466 _0421_
*467 _0422_
*468 _0423_
*469 _0424_
*470 _0425_
*471 _0426_
*472 _0427_
*473 _0428_
*474 _0429_
*475 _0430_
*476 _0431_
*477 _0432_
*478 _0433_
*479 _0434_
*480 _0435_
*481 _0436_
*482 _0437_
*483 _0438_
*484 _0439_
*485 _0440_
*486 _0441_
*487 _0442_
*488 _0443_
*489 _0444_
*490 _0445_
*491 _0446_
*492 _0447_
*493 _0448_
*494 _0449_
*495 _0450_
*496 _0451_
*497 _0452_
*498 _0453_
*499 _0454_
*500 _0455_
*501 _0456_
*502 _0457_
*503 _0458_
*504 _0459_
*505 _0460_
*506 _0461_
*507 _0462_
*508 _0463_
*509 _0464_
*510 _0465_
*511 _0466_
*512 _0467_
*513 _0468_
*514 _0469_
*515 _0470_
*516 _0471_
*517 _0472_
*518 _0473_
*519 _0474_
*520 _0475_
*521 _0476_
*522 _0477_
*523 _0478_
*524 _0479_
*525 _0480_
*526 _0481_
*527 _0482_
*528 _0483_
*529 _0484_
*530 _0485_
*531 _0486_
*532 _0487_
*533 _0488_
*534 _0489_
*535 _0490_
*536 _0491_
*537 _0492_
*538 _0493_
*539 _0494_
*540 _0495_
*541 _0496_
*542 _0497_
*543 _0498_
*544 _0499_
*545 _0500_
*546 _0501_
*547 _0502_
*548 _0503_
*549 _0504_
*550 _0505_
*551 _0506_
*552 _0507_
*553 _0508_
*554 _0509_
*555 _0510_
*556 _0511_
*557 _0512_
*558 _0513_
*559 _0514_
*560 _0515_
*561 _0516_
*562 _0517_
*563 _0518_
*564 _0519_
*565 _0520_
*566 _0521_
*567 _0522_
*568 _0523_
*569 _0524_
*570 _0525_
*571 _0526_
*572 _0527_
*573 _0528_
*574 _0529_
*575 _0530_
*576 _0531_
*577 _0532_
*578 _0533_
*579 _0534_
*580 _0535_
*581 _0536_
*582 _0537_
*583 _0538_
*584 _0539_
*585 _0540_
*586 _0541_
*587 _0542_
*588 _0543_
*589 _0544_
*590 _0545_
*591 _0546_
*592 _0547_
*593 _0548_
*594 _0549_
*595 _0550_
*596 _0551_
*597 _0552_
*598 _0553_
*599 _0554_
*600 _0555_
*601 _0556_
*602 _0557_
*603 _0558_
*604 _0559_
*605 _0560_
*606 _0561_
*607 _0562_
*608 _0563_
*609 _0564_
*610 _0565_
*611 _0566_
*612 _0567_
*613 _0568_
*614 _0569_
*615 _0570_
*616 _0571_
*617 _0572_
*618 _0573_
*619 _0574_
*620 _0575_
*621 _0576_
*622 _0577_
*623 _0578_
*624 _0579_
*625 _0580_
*626 _0581_
*627 _0582_
*628 _0583_
*629 _0584_
*630 _0585_
*631 _0586_
*632 _0587_
*633 _0588_
*634 _0589_
*635 _0590_
*636 _0591_
*637 _0592_
*638 _0593_
*639 _0594_
*640 _0595_
*641 _0596_
*642 _0597_
*643 _0598_
*644 _0599_
*645 _0600_
*646 _0601_
*647 _0602_
*648 _0603_
*649 _0604_
*650 _0605_
*651 _0606_
*652 _0607_
*653 _0608_
*654 _0609_
*655 _0610_
*656 _0611_
*657 _0612_
*658 _0613_
*659 _0614_
*660 _0615_
*661 _0616_
*662 _0617_
*663 _0618_
*664 _0619_
*665 _0620_
*666 _0621_
*667 _0622_
*668 _0623_
*669 _0624_
*670 _0625_
*671 _0626_
*672 _0627_
*673 _0628_
*674 _0629_
*675 _0630_
*676 _0631_
*677 _0632_
*678 _0633_
*679 _0634_
*680 _0635_
*681 _0636_
*682 _0637_
*683 _0638_
*684 _0639_
*685 _0640_
*686 _0641_
*687 _0642_
*688 _0643_
*689 _0644_
*690 _0645_
*691 _0646_
*692 _0647_
*693 _0648_
*694 _0649_
*695 _0650_
*696 _0651_
*697 _0652_
*698 _0653_
*699 _0654_
*700 _0655_
*701 _0656_
*702 _0657_
*703 _0658_
*704 _0659_
*705 _0660_
*706 _0661_
*707 _0662_
*708 _0663_
*709 _0664_
*710 _0665_
*711 _0666_
*712 _0667_
*713 _0668_
*714 _0669_
*715 _0670_
*716 _0671_
*717 _0672_
*718 _0673_
*719 _0674_
*720 _0675_
*721 _0676_
*722 _0677_
*723 _0678_
*724 _0679_
*725 _0680_
*726 _0681_
*727 _0682_
*728 _0683_
*729 _0684_
*730 _0685_
*731 _0686_
*732 _0687_
*733 _0688_
*734 _0689_
*735 _0690_
*736 _0691_
*737 _0692_
*738 _0693_
*739 _0694_
*740 _0695_
*741 _0696_
*742 _0697_
*743 _0698_
*744 _0699_
*745 _0700_
*746 _0701_
*747 _0702_
*748 _0703_
*749 _0704_
*750 _0705_
*751 _0706_
*752 _0707_
*753 _0708_
*754 _0709_
*755 _0710_
*756 _0711_
*757 _0712_
*758 _0713_
*759 _0714_
*760 _0715_
*761 _0716_
*762 _0717_
*763 _0718_
*764 _0719_
*765 _0720_
*766 _0721_
*767 _0722_
*768 _0723_
*769 _0724_
*770 _0725_
*771 _0726_
*772 _0727_
*773 _0728_
*774 _0729_
*775 _0730_
*776 _0731_
*777 _0732_
*778 _0733_
*779 _0734_
*780 _0735_
*781 _0736_
*782 _0737_
*783 _0738_
*784 _0739_
*785 _0740_
*786 _0741_
*787 _0742_
*788 _0743_
*789 _0744_
*790 _0745_
*791 _0746_
*792 _0747_
*793 _0748_
*794 _0749_
*795 _0750_
*796 _0751_
*797 _0752_
*798 _0753_
*799 _0754_
*800 _0755_
*801 _0756_
*802 _0757_
*803 _0758_
*804 _0759_
*805 _0760_
*806 _0761_
*807 _0762_
*808 _0763_
*809 _0764_
*810 _0765_
*811 _0766_
*812 _0767_
*813 clknet_0_clk
*814 clknet_1_0__leaf_clk
*815 clknet_1_1__leaf_clk
*816 muldiv\.a0_0\.GATE
*817 muldiv\.a0_0\.Q
*818 muldiv\.a0_1\.Q
*819 muldiv\.a0_2\.Q
*820 muldiv\.a0_3\.Q
*821 muldiv\.a0_4\.Q
*822 muldiv\.a0_5\.Q
*823 muldiv\.a0_6\.Q
*824 muldiv\.a0_7\.Q
*825 muldiv\.a1_0\.GATE
*826 muldiv\.a1_0\.Q
*827 muldiv\.a1_1\.Q
*828 muldiv\.a1_2\.Q
*829 muldiv\.a1_3\.Q
*830 muldiv\.a1_4\.Q
*831 muldiv\.a1_5\.Q
*832 muldiv\.a1_6\.Q
*833 muldiv\.a1_7\.Q
*834 muldiv\.div2reg
*835 muldiv\.div8\.io_edivzero
*836 muldiv\.negedgeReg_1\.area_io_q
*837 muldiv\.regR\[0\]
*838 muldiv\.regR\[10\]
*839 muldiv\.regR\[11\]
*840 muldiv\.regR\[12\]
*841 muldiv\.regR\[13\]
*842 muldiv\.regR\[14\]
*843 muldiv\.regR\[15\]
*844 muldiv\.regR\[1\]
*845 muldiv\.regR\[2\]
*846 muldiv\.regR\[3\]
*847 muldiv\.regR\[4\]
*848 muldiv\.regR\[5\]
*849 muldiv\.regR\[6\]
*850 muldiv\.regR\[7\]
*851 muldiv\.regR\[8\]
*852 muldiv\.regR\[9\]
*853 net1
*854 net10
*855 net11
*856 net12
*857 net13
*858 net14
*859 net15
*860 net16
*861 net2
*862 net29
*863 net3
*864 net32
*865 net33
*866 net34
*867 net35
*868 net36
*869 net37
*870 net38
*871 net39
*872 net4
*873 net40
*874 net41
*875 net42
*876 net43
*877 net44
*878 net45
*879 net46
*880 net47
*881 net48
*882 net49
*883 net5
*884 net50
*885 net56
*886 net57
*887 net58
*888 net59
*889 net6
*890 net60
*891 net61
*892 net62
*893 net63
*894 net64
*895 net65
*896 net66
*897 net67
*898 net68
*899 net69
*900 net7
*901 net70
*902 net71
*903 net8
*904 net9
*905 FILLER_0_0_109
*906 FILLER_0_0_113
*907 FILLER_0_0_125
*908 FILLER_0_0_137
*909 FILLER_0_0_141
*910 FILLER_0_0_15
*911 FILLER_0_0_153
*912 FILLER_0_0_165
*913 FILLER_0_0_169
*914 FILLER_0_0_181
*915 FILLER_0_0_193
*916 FILLER_0_0_197
*917 FILLER_0_0_209
*918 FILLER_0_0_221
*919 FILLER_0_0_225
*920 FILLER_0_0_237
*921 FILLER_0_0_249
*922 FILLER_0_0_253
*923 FILLER_0_0_265
*924 FILLER_0_0_27
*925 FILLER_0_0_277
*926 FILLER_0_0_281
*927 FILLER_0_0_29
*928 FILLER_0_0_293
*929 FILLER_0_0_3
*930 FILLER_0_0_305
*931 FILLER_0_0_309
*932 FILLER_0_0_321
*933 FILLER_0_0_333
*934 FILLER_0_0_41
*935 FILLER_0_0_53
*936 FILLER_0_0_57
*937 FILLER_0_0_69
*938 FILLER_0_0_81
*939 FILLER_0_0_85
*940 FILLER_0_0_97
*941 FILLER_0_10_117
*942 FILLER_0_10_129
*943 FILLER_0_10_137
*944 FILLER_0_10_141
*945 FILLER_0_10_145
*946 FILLER_0_10_15
*947 FILLER_0_10_156
*948 FILLER_0_10_164
*949 FILLER_0_10_170
*950 FILLER_0_10_182
*951 FILLER_0_10_194
*952 FILLER_0_10_197
*953 FILLER_0_10_201
*954 FILLER_0_10_209
*955 FILLER_0_10_221
*956 FILLER_0_10_228
*957 FILLER_0_10_240
*958 FILLER_0_10_253
*959 FILLER_0_10_269
*960 FILLER_0_10_27
*961 FILLER_0_10_275
*962 FILLER_0_10_283
*963 FILLER_0_10_29
*964 FILLER_0_10_295
*965 FILLER_0_10_3
*966 FILLER_0_10_307
*967 FILLER_0_10_314
*968 FILLER_0_10_326
*969 FILLER_0_10_334
*970 FILLER_0_10_38
*971 FILLER_0_10_42
*972 FILLER_0_10_52
*973 FILLER_0_10_70
*974 FILLER_0_10_90
*975 FILLER_0_11_110
*976 FILLER_0_11_117
*977 FILLER_0_11_123
*978 FILLER_0_11_129
*979 FILLER_0_11_141
*980 FILLER_0_11_15
*981 FILLER_0_11_159
*982 FILLER_0_11_177
*983 FILLER_0_11_201
*984 FILLER_0_11_213
*985 FILLER_0_11_221
*986 FILLER_0_11_232
*987 FILLER_0_11_238
*988 FILLER_0_11_255
*989 FILLER_0_11_267
*990 FILLER_0_11_27
*991 FILLER_0_11_277
*992 FILLER_0_11_281
*993 FILLER_0_11_293
*994 FILLER_0_11_3
*995 FILLER_0_11_310
*996 FILLER_0_11_33
*997 FILLER_0_11_333
*998 FILLER_0_11_43
*999 FILLER_0_11_47
*1000 FILLER_0_11_55
*1001 FILLER_0_11_73
*1002 FILLER_0_11_84
*1003 FILLER_0_11_92
*1004 FILLER_0_11_99
*1005 FILLER_0_12_102
*1006 FILLER_0_12_135
*1007 FILLER_0_12_139
*1008 FILLER_0_12_141
*1009 FILLER_0_12_147
*1010 FILLER_0_12_15
*1011 FILLER_0_12_155
*1012 FILLER_0_12_160
*1013 FILLER_0_12_172
*1014 FILLER_0_12_184
*1015 FILLER_0_12_197
*1016 FILLER_0_12_218
*1017 FILLER_0_12_226
*1018 FILLER_0_12_238
*1019 FILLER_0_12_253
*1020 FILLER_0_12_259
*1021 FILLER_0_12_27
*1022 FILLER_0_12_276
*1023 FILLER_0_12_29
*1024 FILLER_0_12_295
*1025 FILLER_0_12_3
*1026 FILLER_0_12_307
*1027 FILLER_0_12_314
*1028 FILLER_0_12_329
*1029 FILLER_0_12_37
*1030 FILLER_0_12_47
*1031 FILLER_0_12_55
*1032 FILLER_0_12_68
*1033 FILLER_0_12_81
*1034 FILLER_0_12_85
*1035 FILLER_0_13_104
*1036 FILLER_0_13_119
*1037 FILLER_0_13_131
*1038 FILLER_0_13_143
*1039 FILLER_0_13_15
*1040 FILLER_0_13_164
*1041 FILLER_0_13_172
*1042 FILLER_0_13_184
*1043 FILLER_0_13_193
*1044 FILLER_0_13_212
*1045 FILLER_0_13_237
*1046 FILLER_0_13_249
*1047 FILLER_0_13_261
*1048 FILLER_0_13_27
*1049 FILLER_0_13_273
*1050 FILLER_0_13_279
*1051 FILLER_0_13_281
*1052 FILLER_0_13_286
*1053 FILLER_0_13_290
*1054 FILLER_0_13_3
*1055 FILLER_0_13_308
*1056 FILLER_0_13_318
*1057 FILLER_0_13_330
*1058 FILLER_0_13_334
*1059 FILLER_0_13_34
*1060 FILLER_0_13_52
*1061 FILLER_0_13_7
*1062 FILLER_0_13_88
*1063 FILLER_0_14_109
*1064 FILLER_0_14_117
*1065 FILLER_0_14_123
*1066 FILLER_0_14_136
*1067 FILLER_0_14_151
*1068 FILLER_0_14_163
*1069 FILLER_0_14_175
*1070 FILLER_0_14_19
*1071 FILLER_0_14_197
*1072 FILLER_0_14_205
*1073 FILLER_0_14_210
*1074 FILLER_0_14_217
*1075 FILLER_0_14_229
*1076 FILLER_0_14_237
*1077 FILLER_0_14_249
*1078 FILLER_0_14_253
*1079 FILLER_0_14_261
*1080 FILLER_0_14_27
*1081 FILLER_0_14_276
*1082 FILLER_0_14_290
*1083 FILLER_0_14_3
*1084 FILLER_0_14_302
*1085 FILLER_0_14_309
*1086 FILLER_0_14_320
*1087 FILLER_0_14_324
*1088 FILLER_0_14_331
*1089 FILLER_0_14_44
*1090 FILLER_0_14_58
*1091 FILLER_0_14_64
*1092 FILLER_0_14_7
*1093 FILLER_0_14_71
*1094 FILLER_0_14_83
*1095 FILLER_0_14_85
*1096 FILLER_0_15_100
*1097 FILLER_0_15_106
*1098 FILLER_0_15_113
*1099 FILLER_0_15_122
*1100 FILLER_0_15_128
*1101 FILLER_0_15_15
*1102 FILLER_0_15_159
*1103 FILLER_0_15_175
*1104 FILLER_0_15_181
*1105 FILLER_0_15_187
*1106 FILLER_0_15_191
*1107 FILLER_0_15_203
*1108 FILLER_0_15_214
*1109 FILLER_0_15_222
*1110 FILLER_0_15_231
*1111 FILLER_0_15_239
*1112 FILLER_0_15_246
*1113 FILLER_0_15_254
*1114 FILLER_0_15_26
*1115 FILLER_0_15_270
*1116 FILLER_0_15_278
*1117 FILLER_0_15_281
*1118 FILLER_0_15_289
*1119 FILLER_0_15_3
*1120 FILLER_0_15_308
*1121 FILLER_0_15_314
*1122 FILLER_0_15_322
*1123 FILLER_0_15_329
*1124 FILLER_0_15_36
*1125 FILLER_0_15_48
*1126 FILLER_0_15_52
*1127 FILLER_0_15_70
*1128 FILLER_0_15_74
*1129 FILLER_0_16_10
*1130 FILLER_0_16_112
*1131 FILLER_0_16_135
*1132 FILLER_0_16_139
*1133 FILLER_0_16_144
*1134 FILLER_0_16_152
*1135 FILLER_0_16_164
*1136 FILLER_0_16_170
*1137 FILLER_0_16_181
*1138 FILLER_0_16_189
*1139 FILLER_0_16_204
*1140 FILLER_0_16_21
*1141 FILLER_0_16_214
*1142 FILLER_0_16_218
*1143 FILLER_0_16_233
*1144 FILLER_0_16_239
*1145 FILLER_0_16_253
*1146 FILLER_0_16_265
*1147 FILLER_0_16_273
*1148 FILLER_0_16_296
*1149 FILLER_0_16_309
*1150 FILLER_0_16_313
*1151 FILLER_0_16_321
*1152 FILLER_0_16_333
*1153 FILLER_0_16_37
*1154 FILLER_0_16_45
*1155 FILLER_0_16_59
*1156 FILLER_0_16_71
*1157 FILLER_0_16_79
*1158 FILLER_0_16_83
*1159 FILLER_0_16_85
*1160 FILLER_0_17_101
*1161 FILLER_0_17_109
*1162 FILLER_0_17_116
*1163 FILLER_0_17_128
*1164 FILLER_0_17_13
*1165 FILLER_0_17_147
*1166 FILLER_0_17_164
*1167 FILLER_0_17_191
*1168 FILLER_0_17_199
*1169 FILLER_0_17_20
*1170 FILLER_0_17_214
*1171 FILLER_0_17_223
*1172 FILLER_0_17_225
*1173 FILLER_0_17_237
*1174 FILLER_0_17_246
*1175 FILLER_0_17_254
*1176 FILLER_0_17_26
*1177 FILLER_0_17_276
*1178 FILLER_0_17_287
*1179 FILLER_0_17_3
*1180 FILLER_0_17_30
*1181 FILLER_0_17_310
*1182 FILLER_0_17_333
*1183 FILLER_0_17_42
*1184 FILLER_0_17_54
*1185 FILLER_0_17_79
*1186 FILLER_0_17_84
*1187 FILLER_0_17_9
*1188 FILLER_0_17_91
*1189 FILLER_0_18_115
*1190 FILLER_0_18_120
*1191 FILLER_0_18_134
*1192 FILLER_0_18_158
*1193 FILLER_0_18_185
*1194 FILLER_0_18_236
*1195 FILLER_0_18_244
*1196 FILLER_0_18_253
*1197 FILLER_0_18_265
*1198 FILLER_0_18_277
*1199 FILLER_0_18_282
*1200 FILLER_0_18_294
*1201 FILLER_0_18_3
*1202 FILLER_0_18_306
*1203 FILLER_0_18_309
*1204 FILLER_0_18_313
*1205 FILLER_0_18_318
*1206 FILLER_0_18_325
*1207 FILLER_0_18_333
*1208 FILLER_0_18_36
*1209 FILLER_0_18_46
*1210 FILLER_0_18_65
*1211 FILLER_0_18_77
*1212 FILLER_0_18_83
*1213 FILLER_0_19_104
*1214 FILLER_0_19_119
*1215 FILLER_0_19_132
*1216 FILLER_0_19_136
*1217 FILLER_0_19_152
*1218 FILLER_0_19_165
*1219 FILLER_0_19_173
*1220 FILLER_0_19_181
*1221 FILLER_0_19_189
*1222 FILLER_0_19_20
*1223 FILLER_0_19_201
*1224 FILLER_0_19_213
*1225 FILLER_0_19_221
*1226 FILLER_0_19_234
*1227 FILLER_0_19_242
*1228 FILLER_0_19_255
*1229 FILLER_0_19_269
*1230 FILLER_0_19_278
*1231 FILLER_0_19_291
*1232 FILLER_0_19_3
*1233 FILLER_0_19_301
*1234 FILLER_0_19_313
*1235 FILLER_0_19_32
*1236 FILLER_0_19_321
*1237 FILLER_0_19_329
*1238 FILLER_0_19_44
*1239 FILLER_0_19_77
*1240 FILLER_0_19_88
*1241 FILLER_0_19_96
*1242 FILLER_0_1_105
*1243 FILLER_0_1_111
*1244 FILLER_0_1_113
*1245 FILLER_0_1_125
*1246 FILLER_0_1_137
*1247 FILLER_0_1_149
*1248 FILLER_0_1_15
*1249 FILLER_0_1_161
*1250 FILLER_0_1_167
*1251 FILLER_0_1_169
*1252 FILLER_0_1_181
*1253 FILLER_0_1_193
*1254 FILLER_0_1_205
*1255 FILLER_0_1_217
*1256 FILLER_0_1_223
*1257 FILLER_0_1_225
*1258 FILLER_0_1_237
*1259 FILLER_0_1_249
*1260 FILLER_0_1_261
*1261 FILLER_0_1_27
*1262 FILLER_0_1_273
*1263 FILLER_0_1_279
*1264 FILLER_0_1_281
*1265 FILLER_0_1_293
*1266 FILLER_0_1_3
*1267 FILLER_0_1_305
*1268 FILLER_0_1_317
*1269 FILLER_0_1_329
*1270 FILLER_0_1_39
*1271 FILLER_0_1_51
*1272 FILLER_0_1_55
*1273 FILLER_0_1_57
*1274 FILLER_0_1_69
*1275 FILLER_0_1_81
*1276 FILLER_0_1_93
*1277 FILLER_0_20_10
*1278 FILLER_0_20_109
*1279 FILLER_0_20_117
*1280 FILLER_0_20_129
*1281 FILLER_0_20_133
*1282 FILLER_0_20_144
*1283 FILLER_0_20_148
*1284 FILLER_0_20_157
*1285 FILLER_0_20_163
*1286 FILLER_0_20_180
*1287 FILLER_0_20_200
*1288 FILLER_0_20_218
*1289 FILLER_0_20_232
*1290 FILLER_0_20_238
*1291 FILLER_0_20_246
*1292 FILLER_0_20_253
*1293 FILLER_0_20_26
*1294 FILLER_0_20_265
*1295 FILLER_0_20_273
*1296 FILLER_0_20_279
*1297 FILLER_0_20_29
*1298 FILLER_0_20_291
*1299 FILLER_0_20_299
*1300 FILLER_0_20_307
*1301 FILLER_0_20_309
*1302 FILLER_0_20_317
*1303 FILLER_0_20_326
*1304 FILLER_0_20_33
*1305 FILLER_0_20_334
*1306 FILLER_0_20_46
*1307 FILLER_0_20_54
*1308 FILLER_0_20_63
*1309 FILLER_0_20_67
*1310 FILLER_0_20_79
*1311 FILLER_0_20_83
*1312 FILLER_0_20_85
*1313 FILLER_0_20_97
*1314 FILLER_0_21_102
*1315 FILLER_0_21_109
*1316 FILLER_0_21_148
*1317 FILLER_0_21_15
*1318 FILLER_0_21_164
*1319 FILLER_0_21_177
*1320 FILLER_0_21_189
*1321 FILLER_0_21_209
*1322 FILLER_0_21_221
*1323 FILLER_0_21_232
*1324 FILLER_0_21_238
*1325 FILLER_0_21_254
*1326 FILLER_0_21_260
*1327 FILLER_0_21_268
*1328 FILLER_0_21_281
*1329 FILLER_0_21_3
*1330 FILLER_0_21_305
*1331 FILLER_0_21_314
*1332 FILLER_0_21_325
*1333 FILLER_0_21_333
*1334 FILLER_0_21_42
*1335 FILLER_0_21_48
*1336 FILLER_0_21_76
*1337 FILLER_0_21_82
*1338 FILLER_0_21_96
*1339 FILLER_0_22_130
*1340 FILLER_0_22_138
*1341 FILLER_0_22_168
*1342 FILLER_0_22_178
*1343 FILLER_0_22_18
*1344 FILLER_0_22_195
*1345 FILLER_0_22_210
*1346 FILLER_0_22_214
*1347 FILLER_0_22_226
*1348 FILLER_0_22_235
*1349 FILLER_0_22_239
*1350 FILLER_0_22_247
*1351 FILLER_0_22_251
*1352 FILLER_0_22_253
*1353 FILLER_0_22_260
*1354 FILLER_0_22_266
*1355 FILLER_0_22_27
*1356 FILLER_0_22_29
*1357 FILLER_0_22_293
*1358 FILLER_0_22_3
*1359 FILLER_0_22_309
*1360 FILLER_0_22_328
*1361 FILLER_0_22_334
*1362 FILLER_0_22_41
*1363 FILLER_0_22_49
*1364 FILLER_0_22_61
*1365 FILLER_0_22_69
*1366 FILLER_0_22_77
*1367 FILLER_0_22_83
*1368 FILLER_0_23_102
*1369 FILLER_0_23_109
*1370 FILLER_0_23_113
*1371 FILLER_0_23_121
*1372 FILLER_0_23_14
*1373 FILLER_0_23_142
*1374 FILLER_0_23_167
*1375 FILLER_0_23_169
*1376 FILLER_0_23_179
*1377 FILLER_0_23_184
*1378 FILLER_0_23_19
*1379 FILLER_0_23_206
*1380 FILLER_0_23_218
*1381 FILLER_0_23_225
*1382 FILLER_0_23_240
*1383 FILLER_0_23_264
*1384 FILLER_0_23_276
*1385 FILLER_0_23_291
*1386 FILLER_0_23_300
*1387 FILLER_0_23_312
*1388 FILLER_0_23_320
*1389 FILLER_0_23_331
*1390 FILLER_0_23_39
*1391 FILLER_0_23_45
*1392 FILLER_0_23_55
*1393 FILLER_0_23_57
*1394 FILLER_0_23_66
*1395 FILLER_0_23_78
*1396 FILLER_0_23_82
*1397 FILLER_0_23_91
*1398 FILLER_0_24_115
*1399 FILLER_0_24_127
*1400 FILLER_0_24_141
*1401 FILLER_0_24_15
*1402 FILLER_0_24_153
*1403 FILLER_0_24_159
*1404 FILLER_0_24_167
*1405 FILLER_0_24_175
*1406 FILLER_0_24_186
*1407 FILLER_0_24_194
*1408 FILLER_0_24_197
*1409 FILLER_0_24_206
*1410 FILLER_0_24_229
*1411 FILLER_0_24_241
*1412 FILLER_0_24_247
*1413 FILLER_0_24_263
*1414 FILLER_0_24_27
*1415 FILLER_0_24_271
*1416 FILLER_0_24_278
*1417 FILLER_0_24_29
*1418 FILLER_0_24_290
*1419 FILLER_0_24_299
*1420 FILLER_0_24_3
*1421 FILLER_0_24_307
*1422 FILLER_0_24_309
*1423 FILLER_0_24_317
*1424 FILLER_0_24_329
*1425 FILLER_0_24_37
*1426 FILLER_0_24_52
*1427 FILLER_0_24_60
*1428 FILLER_0_24_75
*1429 FILLER_0_24_83
*1430 FILLER_0_24_98
*1431 FILLER_0_25_103
*1432 FILLER_0_25_111
*1433 FILLER_0_25_113
*1434 FILLER_0_25_145
*1435 FILLER_0_25_153
*1436 FILLER_0_25_169
*1437 FILLER_0_25_189
*1438 FILLER_0_25_20
*1439 FILLER_0_25_209
*1440 FILLER_0_25_217
*1441 FILLER_0_25_221
*1442 FILLER_0_25_225
*1443 FILLER_0_25_237
*1444 FILLER_0_25_249
*1445 FILLER_0_25_258
*1446 FILLER_0_25_26
*1447 FILLER_0_25_262
*1448 FILLER_0_25_267
*1449 FILLER_0_25_276
*1450 FILLER_0_25_288
*1451 FILLER_0_25_3
*1452 FILLER_0_25_314
*1453 FILLER_0_25_326
*1454 FILLER_0_25_334
*1455 FILLER_0_25_43
*1456 FILLER_0_25_55
*1457 FILLER_0_25_64
*1458 FILLER_0_25_72
*1459 FILLER_0_25_91
*1460 FILLER_0_26_106
*1461 FILLER_0_26_113
*1462 FILLER_0_26_125
*1463 FILLER_0_26_137
*1464 FILLER_0_26_141
*1465 FILLER_0_26_149
*1466 FILLER_0_26_164
*1467 FILLER_0_26_168
*1468 FILLER_0_26_181
*1469 FILLER_0_26_193
*1470 FILLER_0_26_197
*1471 FILLER_0_26_201
*1472 FILLER_0_26_220
*1473 FILLER_0_26_23
*1474 FILLER_0_26_232
*1475 FILLER_0_26_243
*1476 FILLER_0_26_251
*1477 FILLER_0_26_260
*1478 FILLER_0_26_27
*1479 FILLER_0_26_281
*1480 FILLER_0_26_289
*1481 FILLER_0_26_29
*1482 FILLER_0_26_296
*1483 FILLER_0_26_3
*1484 FILLER_0_26_309
*1485 FILLER_0_26_315
*1486 FILLER_0_26_333
*1487 FILLER_0_26_41
*1488 FILLER_0_26_49
*1489 FILLER_0_26_76
*1490 FILLER_0_26_85
*1491 FILLER_0_26_90
*1492 FILLER_0_26_98
*1493 FILLER_0_27_103
*1494 FILLER_0_27_111
*1495 FILLER_0_27_113
*1496 FILLER_0_27_123
*1497 FILLER_0_27_136
*1498 FILLER_0_27_148
*1499 FILLER_0_27_15
*1500 FILLER_0_27_152
*1501 FILLER_0_27_161
*1502 FILLER_0_27_167
*1503 FILLER_0_27_169
*1504 FILLER_0_27_182
*1505 FILLER_0_27_190
*1506 FILLER_0_27_208
*1507 FILLER_0_27_216
*1508 FILLER_0_27_225
*1509 FILLER_0_27_232
*1510 FILLER_0_27_244
*1511 FILLER_0_27_255
*1512 FILLER_0_27_26
*1513 FILLER_0_27_267
*1514 FILLER_0_27_271
*1515 FILLER_0_27_276
*1516 FILLER_0_27_281
*1517 FILLER_0_27_3
*1518 FILLER_0_27_312
*1519 FILLER_0_27_320
*1520 FILLER_0_27_328
*1521 FILLER_0_27_334
*1522 FILLER_0_27_34
*1523 FILLER_0_27_55
*1524 FILLER_0_27_66
*1525 FILLER_0_27_7
*1526 FILLER_0_27_77
*1527 FILLER_0_27_85
*1528 FILLER_0_27_95
*1529 FILLER_0_28_127
*1530 FILLER_0_28_141
*1531 FILLER_0_28_158
*1532 FILLER_0_28_176
*1533 FILLER_0_28_188
*1534 FILLER_0_28_197
*1535 FILLER_0_28_208
*1536 FILLER_0_28_220
*1537 FILLER_0_28_239
*1538 FILLER_0_28_251
*1539 FILLER_0_28_267
*1540 FILLER_0_28_274
*1541 FILLER_0_28_283
*1542 FILLER_0_28_29
*1543 FILLER_0_28_291
*1544 FILLER_0_28_3
*1545 FILLER_0_28_303
*1546 FILLER_0_28_307
*1547 FILLER_0_28_309
*1548 FILLER_0_28_321
*1549 FILLER_0_28_327
*1550 FILLER_0_28_40
*1551 FILLER_0_28_52
*1552 FILLER_0_28_64
*1553 FILLER_0_28_68
*1554 FILLER_0_28_76
*1555 FILLER_0_28_85
*1556 FILLER_0_28_97
*1557 FILLER_0_29_103
*1558 FILLER_0_29_109
*1559 FILLER_0_29_120
*1560 FILLER_0_29_137
*1561 FILLER_0_29_15
*1562 FILLER_0_29_160
*1563 FILLER_0_29_169
*1564 FILLER_0_29_181
*1565 FILLER_0_29_198
*1566 FILLER_0_29_210
*1567 FILLER_0_29_214
*1568 FILLER_0_29_220
*1569 FILLER_0_29_242
*1570 FILLER_0_29_246
*1571 FILLER_0_29_253
*1572 FILLER_0_29_258
*1573 FILLER_0_29_27
*1574 FILLER_0_29_277
*1575 FILLER_0_29_287
*1576 FILLER_0_29_291
*1577 FILLER_0_29_3
*1578 FILLER_0_29_305
*1579 FILLER_0_29_316
*1580 FILLER_0_29_324
*1581 FILLER_0_29_331
*1582 FILLER_0_29_35
*1583 FILLER_0_29_39
*1584 FILLER_0_29_43
*1585 FILLER_0_29_57
*1586 FILLER_0_29_63
*1587 FILLER_0_29_84
*1588 FILLER_0_29_91
*1589 FILLER_0_2_109
*1590 FILLER_0_2_121
*1591 FILLER_0_2_133
*1592 FILLER_0_2_139
*1593 FILLER_0_2_141
*1594 FILLER_0_2_15
*1595 FILLER_0_2_153
*1596 FILLER_0_2_165
*1597 FILLER_0_2_177
*1598 FILLER_0_2_189
*1599 FILLER_0_2_195
*1600 FILLER_0_2_197
*1601 FILLER_0_2_209
*1602 FILLER_0_2_221
*1603 FILLER_0_2_233
*1604 FILLER_0_2_245
*1605 FILLER_0_2_251
*1606 FILLER_0_2_253
*1607 FILLER_0_2_265
*1608 FILLER_0_2_27
*1609 FILLER_0_2_277
*1610 FILLER_0_2_289
*1611 FILLER_0_2_29
*1612 FILLER_0_2_3
*1613 FILLER_0_2_301
*1614 FILLER_0_2_307
*1615 FILLER_0_2_309
*1616 FILLER_0_2_321
*1617 FILLER_0_2_333
*1618 FILLER_0_2_41
*1619 FILLER_0_2_53
*1620 FILLER_0_2_65
*1621 FILLER_0_2_77
*1622 FILLER_0_2_83
*1623 FILLER_0_2_85
*1624 FILLER_0_2_97
*1625 FILLER_0_30_134
*1626 FILLER_0_30_141
*1627 FILLER_0_30_145
*1628 FILLER_0_30_151
*1629 FILLER_0_30_161
*1630 FILLER_0_30_172
*1631 FILLER_0_30_179
*1632 FILLER_0_30_183
*1633 FILLER_0_30_191
*1634 FILLER_0_30_195
*1635 FILLER_0_30_20
*1636 FILLER_0_30_237
*1637 FILLER_0_30_245
*1638 FILLER_0_30_260
*1639 FILLER_0_30_283
*1640 FILLER_0_30_291
*1641 FILLER_0_30_3
*1642 FILLER_0_30_302
*1643 FILLER_0_30_309
*1644 FILLER_0_30_321
*1645 FILLER_0_30_329
*1646 FILLER_0_30_41
*1647 FILLER_0_30_67
*1648 FILLER_0_31_110
*1649 FILLER_0_31_113
*1650 FILLER_0_31_12
*1651 FILLER_0_31_125
*1652 FILLER_0_31_137
*1653 FILLER_0_31_142
*1654 FILLER_0_31_150
*1655 FILLER_0_31_180
*1656 FILLER_0_31_186
*1657 FILLER_0_31_207
*1658 FILLER_0_31_211
*1659 FILLER_0_31_222
*1660 FILLER_0_31_225
*1661 FILLER_0_31_24
*1662 FILLER_0_31_243
*1663 FILLER_0_31_255
*1664 FILLER_0_31_264
*1665 FILLER_0_31_272
*1666 FILLER_0_31_28
*1667 FILLER_0_31_287
*1668 FILLER_0_31_293
*1669 FILLER_0_31_3
*1670 FILLER_0_31_301
*1671 FILLER_0_31_305
*1672 FILLER_0_31_323
*1673 FILLER_0_31_332
*1674 FILLER_0_31_37
*1675 FILLER_0_31_49
*1676 FILLER_0_31_57
*1677 FILLER_0_31_78
*1678 FILLER_0_31_85
*1679 FILLER_0_31_93
*1680 FILLER_0_32_105
*1681 FILLER_0_32_113
*1682 FILLER_0_32_139
*1683 FILLER_0_32_159
*1684 FILLER_0_32_167
*1685 FILLER_0_32_18
*1686 FILLER_0_32_186
*1687 FILLER_0_32_195
*1688 FILLER_0_32_234
*1689 FILLER_0_32_238
*1690 FILLER_0_32_251
*1691 FILLER_0_32_256
*1692 FILLER_0_32_26
*1693 FILLER_0_32_268
*1694 FILLER_0_32_272
*1695 FILLER_0_32_286
*1696 FILLER_0_32_290
*1697 FILLER_0_32_298
*1698 FILLER_0_32_3
*1699 FILLER_0_32_306
*1700 FILLER_0_32_309
*1701 FILLER_0_32_317
*1702 FILLER_0_32_334
*1703 FILLER_0_32_35
*1704 FILLER_0_32_41
*1705 FILLER_0_32_49
*1706 FILLER_0_32_61
*1707 FILLER_0_32_76
*1708 FILLER_0_32_89
*1709 FILLER_0_32_93
*1710 FILLER_0_33_105
*1711 FILLER_0_33_111
*1712 FILLER_0_33_113
*1713 FILLER_0_33_121
*1714 FILLER_0_33_144
*1715 FILLER_0_33_152
*1716 FILLER_0_33_160
*1717 FILLER_0_33_169
*1718 FILLER_0_33_181
*1719 FILLER_0_33_20
*1720 FILLER_0_33_216
*1721 FILLER_0_33_225
*1722 FILLER_0_33_236
*1723 FILLER_0_33_24
*1724 FILLER_0_33_275
*1725 FILLER_0_33_279
*1726 FILLER_0_33_3
*1727 FILLER_0_33_309
*1728 FILLER_0_33_32
*1729 FILLER_0_33_328
*1730 FILLER_0_33_334
*1731 FILLER_0_33_40
*1732 FILLER_0_33_57
*1733 FILLER_0_33_65
*1734 FILLER_0_33_96
*1735 FILLER_0_34_103
*1736 FILLER_0_34_111
*1737 FILLER_0_34_123
*1738 FILLER_0_34_129
*1739 FILLER_0_34_137
*1740 FILLER_0_34_141
*1741 FILLER_0_34_145
*1742 FILLER_0_34_150
*1743 FILLER_0_34_154
*1744 FILLER_0_34_164
*1745 FILLER_0_34_171
*1746 FILLER_0_34_183
*1747 FILLER_0_34_195
*1748 FILLER_0_34_201
*1749 FILLER_0_34_21
*1750 FILLER_0_34_213
*1751 FILLER_0_34_253
*1752 FILLER_0_34_27
*1753 FILLER_0_34_298
*1754 FILLER_0_34_3
*1755 FILLER_0_34_306
*1756 FILLER_0_34_309
*1757 FILLER_0_34_317
*1758 FILLER_0_34_333
*1759 FILLER_0_34_36
*1760 FILLER_0_34_44
*1761 FILLER_0_34_49
*1762 FILLER_0_34_61
*1763 FILLER_0_34_66
*1764 FILLER_0_34_7
*1765 FILLER_0_34_78
*1766 FILLER_0_34_91
*1767 FILLER_0_35_109