*SPEF "ieee 1481-1999"
*DESIGN "tt_um_wokwi_395355133883896833"
*DATE "20:52:13 Tuesday April 16, 2024"
*VENDOR "The OpenROAD Project"
*PROGRAM "OpenROAD"
*VERSION "0889970d1790a2617e69f253221b8bd7626e51dc"
*DESIGN_FLOW "NAME_SCOPE LOCAL" "PIN_CAP NONE"
*DIVIDER /
*DELIMITER :
*BUS_DELIMITER []
*T_UNIT 1 NS
*C_UNIT 1 PF
*R_UNIT 1 OHM
*L_UNIT 1 HENRY

*NAME_MAP
*3 clk
*4 ena
*5 rst_n
*6 ui_in[0]
*7 ui_in[1]
*8 ui_in[2]
*9 ui_in[3]
*10 ui_in[4]
*11 ui_in[5]
*12 ui_in[6]
*13 ui_in[7]
*14 uio_in[0]
*15 uio_in[1]
*16 uio_in[2]
*17 uio_in[3]
*18 uio_in[4]
*19 uio_in[5]
*20 uio_in[6]
*21 uio_in[7]
*22 net10
*23 net11
*24 net12
*25 net13
*26 net14
*27 net15
*28 net16
*29 net17
*30 net18
*31 net19
*32 net20
*33 net21
*34 net22
*35 net23
*36 net24
*37 net25
*38 uo_out[0]
*39 uo_out[1]
*40 uo_out[2]
*41 uo_out[3]
*42 uo_out[4]
*43 uo_out[5]
*44 uo_out[6]
*45 uo_out[7]
*46 _00_
*47 _01_
*48 _02_
*49 _04_
*50 _05_
*51 _06_
*52 _07_
*53 _08_
*54 _09_
*55 _10_
*56 _11_
*57 _12_
*58 and1\.b
*59 and5\.out
*60 clknet_0_clk
*61 clknet_1_0__leaf_clk
*62 clknet_1_1__leaf_clk
*63 flop2\.q
*64 flop3\.q
*65 flop4\.d
*66 mux3\.out
*67 mux4\.out
*68 nand1\.out
*69 net1
*70 net2
*71 net26
*72 net3
*73 net4
*74 net5
*75 net6
*76 net7
*77 net8
*78 net9
*79 not1\.out
*80 not2\.in
*81 not2\.out
*82 xor1\.out
*83 FILLER_0_0_109
*84 FILLER_0_0_113
*85 FILLER_0_0_125
*86 FILLER_0_0_137
*87 FILLER_0_0_141
*88 FILLER_0_0_15
*89 FILLER_0_0_153
*90 FILLER_0_0_165
*91 FILLER_0_0_169
*92 FILLER_0_0_181
*93 FILLER_0_0_193
*94 FILLER_0_0_197
*95 FILLER_0_0_209
*96 FILLER_0_0_221
*97 FILLER_0_0_225
*98 FILLER_0_0_237
*99 FILLER_0_0_249
*100 FILLER_0_0_253
*101 FILLER_0_0_265
*102 FILLER_0_0_27
*103 FILLER_0_0_277
*104 FILLER_0_0_281
*105 FILLER_0_0_29
*106 FILLER_0_0_293
*107 FILLER_0_0_3
*108 FILLER_0_0_305
*109 FILLER_0_0_309
*110 FILLER_0_0_321
*111 FILLER_0_0_333
*112 FILLER_0_0_41
*113 FILLER_0_0_53
*114 FILLER_0_0_57
*115 FILLER_0_0_69
*116 FILLER_0_0_81
*117 FILLER_0_0_85
*118 FILLER_0_0_97
*119 FILLER_0_10_109
*120 FILLER_0_10_121
*121 FILLER_0_10_133
*122 FILLER_0_10_139
*123 FILLER_0_10_141
*124 FILLER_0_10_15
*125 FILLER_0_10_153
*126 FILLER_0_10_165
*127 FILLER_0_10_177
*128 FILLER_0_10_189
*129 FILLER_0_10_195
*130 FILLER_0_10_197
*131 FILLER_0_10_209
*132 FILLER_0_10_221
*133 FILLER_0_10_233
*134 FILLER_0_10_245
*135 FILLER_0_10_251
*136 FILLER_0_10_253
*137 FILLER_0_10_265
*138 FILLER_0_10_27
*139 FILLER_0_10_277
*140 FILLER_0_10_289
*141 FILLER_0_10_29
*142 FILLER_0_10_3
*143 FILLER_0_10_301
*144 FILLER_0_10_307
*145 FILLER_0_10_309
*146 FILLER_0_10_321
*147 FILLER_0_10_333
*148 FILLER_0_10_41
*149 FILLER_0_10_53
*150 FILLER_0_10_65
*151 FILLER_0_10_77
*152 FILLER_0_10_83
*153 FILLER_0_10_85
*154 FILLER_0_10_97
*155 FILLER_0_11_105
*156 FILLER_0_11_111
*157 FILLER_0_11_113
*158 FILLER_0_11_125
*159 FILLER_0_11_137
*160 FILLER_0_11_149
*161 FILLER_0_11_15
*162 FILLER_0_11_161
*163 FILLER_0_11_167
*164 FILLER_0_11_169
*165 FILLER_0_11_181
*166 FILLER_0_11_193
*167 FILLER_0_11_205
*168 FILLER_0_11_217
*169 FILLER_0_11_223
*170 FILLER_0_11_225
*171 FILLER_0_11_237
*172 FILLER_0_11_249
*173 FILLER_0_11_261
*174 FILLER_0_11_27
*175 FILLER_0_11_273
*176 FILLER_0_11_279
*177 FILLER_0_11_281
*178 FILLER_0_11_293
*179 FILLER_0_11_3
*180 FILLER_0_11_305
*181 FILLER_0_11_317
*182 FILLER_0_11_329
*183 FILLER_0_11_39
*184 FILLER_0_11_51
*185 FILLER_0_11_55
*186 FILLER_0_11_57
*187 FILLER_0_11_69
*188 FILLER_0_11_81
*189 FILLER_0_11_93
*190 FILLER_0_12_109
*191 FILLER_0_12_121
*192 FILLER_0_12_133
*193 FILLER_0_12_139
*194 FILLER_0_12_141
*195 FILLER_0_12_15
*196 FILLER_0_12_153
*197 FILLER_0_12_165
*198 FILLER_0_12_177
*199 FILLER_0_12_189
*200 FILLER_0_12_195
*201 FILLER_0_12_197
*202 FILLER_0_12_209
*203 FILLER_0_12_221
*204 FILLER_0_12_233
*205 FILLER_0_12_245
*206 FILLER_0_12_251
*207 FILLER_0_12_253
*208 FILLER_0_12_265
*209 FILLER_0_12_27
*210 FILLER_0_12_277
*211 FILLER_0_12_289
*212 FILLER_0_12_29
*213 FILLER_0_12_3
*214 FILLER_0_12_301
*215 FILLER_0_12_307
*216 FILLER_0_12_309
*217 FILLER_0_12_321
*218 FILLER_0_12_333
*219 FILLER_0_12_41
*220 FILLER_0_12_53
*221 FILLER_0_12_65
*222 FILLER_0_12_77
*223 FILLER_0_12_83
*224 FILLER_0_12_85
*225 FILLER_0_12_97
*226 FILLER_0_13_105
*227 FILLER_0_13_111
*228 FILLER_0_13_113
*229 FILLER_0_13_125
*230 FILLER_0_13_137
*231 FILLER_0_13_149
*232 FILLER_0_13_15
*233 FILLER_0_13_161
*234 FILLER_0_13_167
*235 FILLER_0_13_169
*236 FILLER_0_13_181
*237 FILLER_0_13_193
*238 FILLER_0_13_205
*239 FILLER_0_13_217
*240 FILLER_0_13_223
*241 FILLER_0_13_225
*242 FILLER_0_13_237
*243 FILLER_0_13_249
*244 FILLER_0_13_261
*245 FILLER_0_13_27
*246 FILLER_0_13_273
*247 FILLER_0_13_279
*248 FILLER_0_13_281
*249 FILLER_0_13_293
*250 FILLER_0_13_3
*251 FILLER_0_13_305
*252 FILLER_0_13_317
*253 FILLER_0_13_329
*254 FILLER_0_13_39
*255 FILLER_0_13_51
*256 FILLER_0_13_55
*257 FILLER_0_13_57
*258 FILLER_0_13_69
*259 FILLER_0_13_81
*260 FILLER_0_13_93
*261 FILLER_0_14_109
*262 FILLER_0_14_121
*263 FILLER_0_14_133
*264 FILLER_0_14_139
*265 FILLER_0_14_141
*266 FILLER_0_14_15
*267 FILLER_0_14_153
*268 FILLER_0_14_165
*269 FILLER_0_14_177
*270 FILLER_0_14_189
*271 FILLER_0_14_195
*272 FILLER_0_14_197
*273 FILLER_0_14_209
*274 FILLER_0_14_221
*275 FILLER_0_14_233
*276 FILLER_0_14_245
*277 FILLER_0_14_251
*278 FILLER_0_14_253
*279 FILLER_0_14_265
*280 FILLER_0_14_27
*281 FILLER_0_14_277
*282 FILLER_0_14_289
*283 FILLER_0_14_29
*284 FILLER_0_14_3
*285 FILLER_0_14_301
*286 FILLER_0_14_307
*287 FILLER_0_14_309
*288 FILLER_0_14_321
*289 FILLER_0_14_333
*290 FILLER_0_14_41
*291 FILLER_0_14_53
*292 FILLER_0_14_65
*293 FILLER_0_14_77
*294 FILLER_0_14_83
*295 FILLER_0_14_85
*296 FILLER_0_14_97
*297 FILLER_0_15_105
*298 FILLER_0_15_111
*299 FILLER_0_15_113
*300 FILLER_0_15_125
*301 FILLER_0_15_137
*302 FILLER_0_15_149
*303 FILLER_0_15_15
*304 FILLER_0_15_161
*305 FILLER_0_15_167
*306 FILLER_0_15_169
*307 FILLER_0_15_181
*308 FILLER_0_15_193
*309 FILLER_0_15_205
*310 FILLER_0_15_217
*311 FILLER_0_15_223
*312 FILLER_0_15_225
*313 FILLER_0_15_237
*314 FILLER_0_15_249
*315 FILLER_0_15_261
*316 FILLER_0_15_27
*317 FILLER_0_15_273
*318 FILLER_0_15_279
*319 FILLER_0_15_281
*320 FILLER_0_15_293
*321 FILLER_0_15_3
*322 FILLER_0_15_305
*323 FILLER_0_15_317
*324 FILLER_0_15_329
*325 FILLER_0_15_39
*326 FILLER_0_15_51
*327 FILLER_0_15_55
*328 FILLER_0_15_57
*329 FILLER_0_15_69
*330 FILLER_0_15_81
*331 FILLER_0_15_93
*332 FILLER_0_16_109
*333 FILLER_0_16_121
*334 FILLER_0_16_133
*335 FILLER_0_16_139
*336 FILLER_0_16_141
*337 FILLER_0_16_15
*338 FILLER_0_16_153
*339 FILLER_0_16_165
*340 FILLER_0_16_177
*341 FILLER_0_16_189
*342 FILLER_0_16_195
*343 FILLER_0_16_197
*344 FILLER_0_16_209
*345 FILLER_0_16_221
*346 FILLER_0_16_233
*347 FILLER_0_16_245
*348 FILLER_0_16_251
*349 FILLER_0_16_253
*350 FILLER_0_16_265
*351 FILLER_0_16_27
*352 FILLER_0_16_277
*353 FILLER_0_16_289
*354 FILLER_0_16_29
*355 FILLER_0_16_3
*356 FILLER_0_16_301
*357 FILLER_0_16_307
*358 FILLER_0_16_309
*359 FILLER_0_16_321
*360 FILLER_0_16_333
*361 FILLER_0_16_41
*362 FILLER_0_16_53
*363 FILLER_0_16_65
*364 FILLER_0_16_77
*365 FILLER_0_16_83
*366 FILLER_0_16_85
*367 FILLER_0_16_97
*368 FILLER_0_17_105
*369 FILLER_0_17_111
*370 FILLER_0_17_113
*371 FILLER_0_17_125
*372 FILLER_0_17_137
*373 FILLER_0_17_149
*374 FILLER_0_17_15
*375 FILLER_0_17_161
*376 FILLER_0_17_167
*377 FILLER_0_17_169
*378 FILLER_0_17_181
*379 FILLER_0_17_193
*380 FILLER_0_17_205
*381 FILLER_0_17_217
*382 FILLER_0_17_223
*383 FILLER_0_17_225
*384 FILLER_0_17_237
*385 FILLER_0_17_249
*386 FILLER_0_17_261
*387 FILLER_0_17_27
*388 FILLER_0_17_273
*389 FILLER_0_17_279
*390 FILLER_0_17_281
*391 FILLER_0_17_293
*392 FILLER_0_17_3
*393 FILLER_0_17_305
*394 FILLER_0_17_317
*395 FILLER_0_17_329
*396 FILLER_0_17_39
*397 FILLER_0_17_51
*398 FILLER_0_17_55
*399 FILLER_0_17_57
*400 FILLER_0_17_69
*401 FILLER_0_17_81
*402 FILLER_0_17_93
*403 FILLER_0_18_109
*404 FILLER_0_18_121
*405 FILLER_0_18_133
*406 FILLER_0_18_139
*407 FILLER_0_18_141
*408 FILLER_0_18_15
*409 FILLER_0_18_153
*410 FILLER_0_18_165
*411 FILLER_0_18_177
*412 FILLER_0_18_189
*413 FILLER_0_18_195
*414 FILLER_0_18_197
*415 FILLER_0_18_209
*416 FILLER_0_18_221
*417 FILLER_0_18_233
*418 FILLER_0_18_245
*419 FILLER_0_18_251
*420 FILLER_0_18_253
*421 FILLER_0_18_265
*422 FILLER_0_18_27
*423 FILLER_0_18_277
*424 FILLER_0_18_289
*425 FILLER_0_18_29
*426 FILLER_0_18_3
*427 FILLER_0_18_301
*428 FILLER_0_18_307
*429 FILLER_0_18_309
*430 FILLER_0_18_321
*431 FILLER_0_18_333
*432 FILLER_0_18_41
*433 FILLER_0_18_53
*434 FILLER_0_18_65
*435 FILLER_0_18_77
*436 FILLER_0_18_83
*437 FILLER_0_18_85
*438 FILLER_0_18_97
*439 FILLER_0_19_105
*440 FILLER_0_19_111
*441 FILLER_0_19_113
*442 FILLER_0_19_125
*443 FILLER_0_19_137
*444 FILLER_0_19_149
*445 FILLER_0_19_15
*446 FILLER_0_19_161
*447 FILLER_0_19_167
*448 FILLER_0_19_169
*449 FILLER_0_19_181
*450 FILLER_0_19_193
*451 FILLER_0_19_205
*452 FILLER_0_19_217
*453 FILLER_0_19_223
*454 FILLER_0_19_225
*455 FILLER_0_19_237
*456 FILLER_0_19_249
*457 FILLER_0_19_261
*458 FILLER_0_19_27
*459 FILLER_0_19_273
*460 FILLER_0_19_279
*461 FILLER_0_19_281
*462 FILLER_0_19_293
*463 FILLER_0_19_3
*464 FILLER_0_19_305
*465 FILLER_0_19_317
*466 FILLER_0_19_329
*467 FILLER_0_19_39
*468 FILLER_0_19_51
*469 FILLER_0_19_55
*470 FILLER_0_19_57
*471 FILLER_0_19_69
*472 FILLER_0_19_81
*473 FILLER_0_19_93
*474 FILLER_0_1_105
*475 FILLER_0_1_111
*476 FILLER_0_1_113
*477 FILLER_0_1_125
*478 FILLER_0_1_137
*479 FILLER_0_1_149
*480 FILLER_0_1_15
*481 FILLER_0_1_161
*482 FILLER_0_1_167
*483 FILLER_0_1_169
*484 FILLER_0_1_181
*485 FILLER_0_1_193
*486 FILLER_0_1_205
*487 FILLER_0_1_217
*488 FILLER_0_1_223
*489 FILLER_0_1_225
*490 FILLER_0_1_237
*491 FILLER_0_1_249
*492 FILLER_0_1_261
*493 FILLER_0_1_27
*494 FILLER_0_1_273
*495 FILLER_0_1_279
*496 FILLER_0_1_281
*497 FILLER_0_1_293
*498 FILLER_0_1_3
*499 FILLER_0_1_305
*500 FILLER_0_1_317
*501 FILLER_0_1_329
*502 FILLER_0_1_39
*503 FILLER_0_1_51
*504 FILLER_0_1_55
*505 FILLER_0_1_57
*506 FILLER_0_1_69
*507 FILLER_0_1_81
*508 FILLER_0_1_93
*509 FILLER_0_20_109
*510 FILLER_0_20_121
*511 FILLER_0_20_133
*512 FILLER_0_20_139
*513 FILLER_0_20_141
*514 FILLER_0_20_15
*515 FILLER_0_20_153
*516 FILLER_0_20_165
*517 FILLER_0_20_177
*518 FILLER_0_20_189
*519 FILLER_0_20_195
*520 FILLER_0_20_197
*521 FILLER_0_20_209
*522 FILLER_0_20_221
*523 FILLER_0_20_233
*524 FILLER_0_20_245
*525 FILLER_0_20_251
*526 FILLER_0_20_253
*527 FILLER_0_20_265
*528 FILLER_0_20_27
*529 FILLER_0_20_277
*530 FILLER_0_20_289
*531 FILLER_0_20_29
*532 FILLER_0_20_3
*533 FILLER_0_20_301
*534 FILLER_0_20_307
*535 FILLER_0_20_309
*536 FILLER_0_20_321
*537 FILLER_0_20_333
*538 FILLER_0_20_41
*539 FILLER_0_20_53
*540 FILLER_0_20_65
*541 FILLER_0_20_77
*542 FILLER_0_20_83
*543 FILLER_0_20_85
*544 FILLER_0_20_97
*545 FILLER_0_21_105
*546 FILLER_0_21_111
*547 FILLER_0_21_113
*548 FILLER_0_21_125
*549 FILLER_0_21_137
*550 FILLER_0_21_149
*551 FILLER_0_21_15
*552 FILLER_0_21_161
*553 FILLER_0_21_167
*554 FILLER_0_21_169
*555 FILLER_0_21_181
*556 FILLER_0_21_193
*557 FILLER_0_21_205
*558 FILLER_0_21_217
*559 FILLER_0_21_223
*560 FILLER_0_21_225
*561 FILLER_0_21_237
*562 FILLER_0_21_249
*563 FILLER_0_21_261
*564 FILLER_0_21_27
*565 FILLER_0_21_273
*566 FILLER_0_21_279
*567 FILLER_0_21_281
*568 FILLER_0_21_293
*569 FILLER_0_21_3
*570 FILLER_0_21_305
*571 FILLER_0_21_317
*572 FILLER_0_21_329
*573 FILLER_0_21_39
*574 FILLER_0_21_51
*575 FILLER_0_21_55
*576 FILLER_0_21_57
*577 FILLER_0_21_69
*578 FILLER_0_21_81
*579 FILLER_0_21_93
*580 FILLER_0_22_109
*581 FILLER_0_22_121
*582 FILLER_0_22_133
*583 FILLER_0_22_139
*584 FILLER_0_22_141
*585 FILLER_0_22_15
*586 FILLER_0_22_153
*587 FILLER_0_22_165
*588 FILLER_0_22_177
*589 FILLER_0_22_189
*590 FILLER_0_22_195
*591 FILLER_0_22_197
*592 FILLER_0_22_209
*593 FILLER_0_22_221
*594 FILLER_0_22_233
*595 FILLER_0_22_245
*596 FILLER_0_22_251
*597 FILLER_0_22_253
*598 FILLER_0_22_265
*599 FILLER_0_22_27
*600 FILLER_0_22_277
*601 FILLER_0_22_289
*602 FILLER_0_22_29
*603 FILLER_0_22_3
*604 FILLER_0_22_301
*605 FILLER_0_22_307
*606 FILLER_0_22_309
*607 FILLER_0_22_321
*608 FILLER_0_22_333
*609 FILLER_0_22_41
*610 FILLER_0_22_53
*611 FILLER_0_22_65
*612 FILLER_0_22_77
*613 FILLER_0_22_83
*614 FILLER_0_22_85
*615 FILLER_0_22_97
*616 FILLER_0_23_105
*617 FILLER_0_23_111
*618 FILLER_0_23_113
*619 FILLER_0_23_125
*620 FILLER_0_23_137
*621 FILLER_0_23_149
*622 FILLER_0_23_15
*623 FILLER_0_23_161
*624 FILLER_0_23_167
*625 FILLER_0_23_169
*626 FILLER_0_23_181
*627 FILLER_0_23_193
*628 FILLER_0_23_205
*629 FILLER_0_23_217
*630 FILLER_0_23_223
*631 FILLER_0_23_225
*632 FILLER_0_23_237
*633 FILLER_0_23_249
*634 FILLER_0_23_261
*635 FILLER_0_23_27
*636 FILLER_0_23_273
*637 FILLER_0_23_279
*638 FILLER_0_23_281
*639 FILLER_0_23_293
*640 FILLER_0_23_3
*641 FILLER_0_23_305
*642 FILLER_0_23_317
*643 FILLER_0_23_329
*644 FILLER_0_23_39
*645 FILLER_0_23_51
*646 FILLER_0_23_55
*647 FILLER_0_23_57
*648 FILLER_0_23_69
*649 FILLER_0_23_81
*650 FILLER_0_23_93
*651 FILLER_0_24_109
*652 FILLER_0_24_121
*653 FILLER_0_24_133
*654 FILLER_0_24_139
*655 FILLER_0_24_141
*656 FILLER_0_24_15
*657 FILLER_0_24_153
*658 FILLER_0_24_165
*659 FILLER_0_24_177
*660 FILLER_0_24_189
*661 FILLER_0_24_195
*662 FILLER_0_24_197
*663 FILLER_0_24_209
*664 FILLER_0_24_221
*665 FILLER_0_24_233
*666 FILLER_0_24_245
*667 FILLER_0_24_251
*668 FILLER_0_24_253
*669 FILLER_0_24_265
*670 FILLER_0_24_27
*671 FILLER_0_24_277
*672 FILLER_0_24_289
*673 FILLER_0_24_29
*674 FILLER_0_24_3
*675 FILLER_0_24_301
*676 FILLER_0_24_307
*677 FILLER_0_24_309
*678 FILLER_0_24_321
*679 FILLER_0_24_333
*680 FILLER_0_24_41
*681 FILLER_0_24_53
*682 FILLER_0_24_65
*683 FILLER_0_24_77
*684 FILLER_0_24_83
*685 FILLER_0_24_85
*686 FILLER_0_24_97
*687 FILLER_0_25_105
*688 FILLER_0_25_111
*689 FILLER_0_25_113
*690 FILLER_0_25_125
*691 FILLER_0_25_137
*692 FILLER_0_25_149
*693 FILLER_0_25_15
*694 FILLER_0_25_161
*695 FILLER_0_25_167
*696 FILLER_0_25_169
*697 FILLER_0_25_181
*698 FILLER_0_25_193
*699 FILLER_0_25_205
*700 FILLER_0_25_217
*701 FILLER_0_25_223
*702 FILLER_0_25_225
*703 FILLER_0_25_237
*704 FILLER_0_25_249
*705 FILLER_0_25_261
*706 FILLER_0_25_27
*707 FILLER_0_25_273
*708 FILLER_0_25_279
*709 FILLER_0_25_281
*710 FILLER_0_25_293
*711 FILLER_0_25_3
*712 FILLER_0_25_305
*713 FILLER_0_25_317
*714 FILLER_0_25_329
*715 FILLER_0_25_39
*716 FILLER_0_25_51
*717 FILLER_0_25_55
*718 FILLER_0_25_57
*719 FILLER_0_25_69
*720 FILLER_0_25_81
*721 FILLER_0_25_93
*722 FILLER_0_26_109
*723 FILLER_0_26_121
*724 FILLER_0_26_133
*725 FILLER_0_26_139
*726 FILLER_0_26_141
*727 FILLER_0_26_15
*728 FILLER_0_26_153
*729 FILLER_0_26_165
*730 FILLER_0_26_177
*731 FILLER_0_26_189
*732 FILLER_0_26_195
*733 FILLER_0_26_197
*734 FILLER_0_26_209
*735 FILLER_0_26_221
*736 FILLER_0_26_233
*737 FILLER_0_26_245
*738 FILLER_0_26_251
*739 FILLER_0_26_253
*740 FILLER_0_26_265
*741 FILLER_0_26_27
*742 FILLER_0_26_277
*743 FILLER_0_26_289
*744 FILLER_0_26_29
*745 FILLER_0_26_3
*746 FILLER_0_26_301
*747 FILLER_0_26_307
*748 FILLER_0_26_309
*749 FILLER_0_26_321
*750 FILLER_0_26_333
*751 FILLER_0_26_41
*752 FILLER_0_26_53
*753 FILLER_0_26_65
*754 FILLER_0_26_77
*755 FILLER_0_26_83
*756 FILLER_0_26_85
*757 FILLER_0_26_97
*758 FILLER_0_27_105
*759 FILLER_0_27_111
*760 FILLER_0_27_113
*761 FILLER_0_27_125
*762 FILLER_0_27_137
*763 FILLER_0_27_149
*764 FILLER_0_27_15
*765 FILLER_0_27_161
*766 FILLER_0_27_167
*767 FILLER_0_27_169
*768 FILLER_0_27_181
*769 FILLER_0_27_193
*770 FILLER_0_27_205
*771 FILLER_0_27_217
*772 FILLER_0_27_223
*773 FILLER_0_27_225
*774 FILLER_0_27_237
*775 FILLER_0_27_249
*776 FILLER_0_27_261
*777 FILLER_0_27_27
*778 FILLER_0_27_273
*779 FILLER_0_27_279
*780 FILLER_0_27_281
*781 FILLER_0_27_293
*782 FILLER_0_27_3
*783 FILLER_0_27_305
*784 FILLER_0_27_317
*785 FILLER_0_27_329
*786 FILLER_0_27_39
*787 FILLER_0_27_51
*788 FILLER_0_27_55
*789 FILLER_0_27_57
*790 FILLER_0_27_69
*791 FILLER_0_27_81
*792 FILLER_0_27_93
*793 FILLER_0_28_109
*794 FILLER_0_28_121
*795 FILLER_0_28_133
*796 FILLER_0_28_139
*797 FILLER_0_28_141
*798 FILLER_0_28_15
*799 FILLER_0_28_153
*800 FILLER_0_28_165
*801 FILLER_0_28_177
*802 FILLER_0_28_189
*803 FILLER_0_28_195
*804 FILLER_0_28_197
*805 FILLER_0_28_209
*806 FILLER_0_28_221
*807 FILLER_0_28_233
*808 FILLER_0_28_245
*809 FILLER_0_28_251
*810 FILLER_0_28_253
*811 FILLER_0_28_265
*812 FILLER_0_28_27
*813 FILLER_0_28_277
*814 FILLER_0_28_289
*815 FILLER_0_28_29
*816 FILLER_0_28_3
*817 FILLER_0_28_301
*818 FILLER_0_28_307
*819 FILLER_0_28_309
*820 FILLER_0_28_321
*821 FILLER_0_28_333
*822 FILLER_0_28_41
*823 FILLER_0_28_53
*824 FILLER_0_28_65
*825 FILLER_0_28_77
*826 FILLER_0_28_83
*827 FILLER_0_28_85
*828 FILLER_0_28_97
*829 FILLER_0_29_105
*830 FILLER_0_29_111
*831 FILLER_0_29_113
*832 FILLER_0_29_125
*833 FILLER_0_29_137
*834 FILLER_0_29_149
*835 FILLER_0_29_15
*836 FILLER_0_29_161
*837 FILLER_0_29_167
*838 FILLER_0_29_169
*839 FILLER_0_29_181
*840 FILLER_0_29_193
*841 FILLER_0_29_205
*842 FILLER_0_29_217
*843 FILLER_0_29_223
*844 FILLER_0_29_225
*845 FILLER_0_29_237
*846 FILLER_0_29_249
*847 FILLER_0_29_261
*848 FILLER_0_29_27
*849 FILLER_0_29_273
*850 FILLER_0_29_279
*851 FILLER_0_29_281
*852 FILLER_0_29_293
*853 FILLER_0_29_3
*854 FILLER_0_29_305
*855 FILLER_0_29_317
*856 FILLER_0_29_329
*857 FILLER_0_29_39
*858 FILLER_0_29_51
*859 FILLER_0_29_55
*860 FILLER_0_29_57
*861 FILLER_0_29_69
*862 FILLER_0_29_81
*863 FILLER_0_29_93
*864 FILLER_0_2_109
*865 FILLER_0_2_121
*866 FILLER_0_2_133
*867 FILLER_0_2_139
*868 FILLER_0_2_141
*869 FILLER_0_2_15
*870 FILLER_0_2_153
*871 FILLER_0_2_165
*872 FILLER_0_2_177
*873 FILLER_0_2_189
*874 FILLER_0_2_195
*875 FILLER_0_2_197
*876 FILLER_0_2_209
*877 FILLER_0_2_221
*878 FILLER_0_2_233
*879 FILLER_0_2_245
*880 FILLER_0_2_251
*881 FILLER_0_2_253
*882 FILLER_0_2_265
*883 FILLER_0_2_27
*884 FILLER_0_2_277
*885 FILLER_0_2_289
*886 FILLER_0_2_29
*887 FILLER_0_2_3
*888 FILLER_0_2_301
*889 FILLER_0_2_307
*890 FILLER_0_2_309
*891 FILLER_0_2_321
*892 FILLER_0_2_333
*893 FILLER_0_2_41
*894 FILLER_0_2_53
*895 FILLER_0_2_65
*896 FILLER_0_2_77
*897 FILLER_0_2_83
*898 FILLER_0_2_85
*899 FILLER_0_2_97
*900 FILLER_0_30_109
*901 FILLER_0_30_121
*902 FILLER_0_30_133
*903 FILLER_0_30_139
*904 FILLER_0_30_141
*905 FILLER_0_30_15
*906 FILLER_0_30_153
*907 FILLER_0_30_165
*908 FILLER_0_30_177
*909 FILLER_0_30_189
*910 FILLER_0_30_195
*911 FILLER_0_30_197
*912 FILLER_0_30_209
*913 FILLER_0_30_221
*914 FILLER_0_30_233
*915 FILLER_0_30_245
*916 FILLER_0_30_251
*917 FILLER_0_30_253
*918 FILLER_0_30_265
*919 FILLER_0_30_27
*920 FILLER_0_30_277
*921 FILLER_0_30_289
*922 FILLER_0_30_29
*923 FILLER_0_30_3
*924 FILLER_0_30_301
*925 FILLER_0_30_307
*926 FILLER_0_30_309
*927 FILLER_0_30_321
*928 FILLER_0_30_333
*929 FILLER_0_30_41
*930 FILLER_0_30_53
*931 FILLER_0_30_65
*932 FILLER_0_30_77
*933 FILLER_0_30_83
*934 FILLER_0_30_85
*935 FILLER_0_30_97
*936 FILLER_0_31_105
*937 FILLER_0_31_111
*938 FILLER_0_31_113
*939 FILLER_0_31_125
*940 FILLER_0_31_137
*941 FILLER_0_31_149
*942 FILLER_0_31_15
*943 FILLER_0_31_161
*944 FILLER_0_31_167
*945 FILLER_0_31_169
*946 FILLER_0_31_181
*947 FILLER_0_31_193
*948 FILLER_0_31_205
*949 FILLER_0_31_217
*950 FILLER_0_31_223
*951 FILLER_0_31_225
*952 FILLER_0_31_237
*953 FILLER_0_31_249
*954 FILLER_0_31_261
*955 FILLER_0_31_27
*956 FILLER_0_31_273
*957 FILLER_0_31_279
*958 FILLER_0_31_281
*959 FILLER_0_31_293
*960 FILLER_0_31_3
*961 FILLER_0_31_305
*962 FILLER_0_31_317
*963 FILLER_0_31_329
*964 FILLER_0_31_39
*965 FILLER_0_31_51
*966 FILLER_0_31_55
*967 FILLER_0_31_57
*968 FILLER_0_31_69
*969 FILLER_0_31_81
*970 FILLER_0_31_93
*971 FILLER_0_32_109
*972 FILLER_0_32_121
*973 FILLER_0_32_133
*974 FILLER_0_32_139
*975 FILLER_0_32_141
*976 FILLER_0_32_15
*977 FILLER_0_32_153
*978 FILLER_0_32_165
*979 FILLER_0_32_177
*980 FILLER_0_32_189
*981 FILLER_0_32_195
*982 FILLER_0_32_197
*983 FILLER_0_32_209
*984 FILLER_0_32_221
*985 FILLER_0_32_233
*986 FILLER_0_32_245
*987 FILLER_0_32_251
*988 FILLER_0_32_253
*989 FILLER_0_32_265
*990 FILLER_0_32_27
*991 FILLER_0_32_277
*992 FILLER_0_32_289
*993 FILLER_0_32_29
*994 FILLER_0_32_3
*995 FILLER_0_32_301
*996 FILLER_0_32_307
*997 FILLER_0_32_309
*998 FILLER_0_32_321
*999 FILLER_0_32_333
*1000 FILLER_0_32_41
*1001 FILLER_0_32_53
*1002 FILLER_0_32_65
*1003 FILLER_0_32_77
*1004 FILLER_0_32_83
*1005 FILLER_0_32_85
*1006 FILLER_0_32_97
*1007 FILLER_0_33_105
*1008 FILLER_0_33_111
*1009 FILLER_0_33_113
*1010 FILLER_0_33_125
*1011 FILLER_0_33_137
*1012 FILLER_0_33_149
*1013 FILLER_0_33_15
*1014 FILLER_0_33_161
*1015 FILLER_0_33_167
*1016 FILLER_0_33_169
*1017 FILLER_0_33_181
*1018 FILLER_0_33_193
*1019 FILLER_0_33_205
*1020 FILLER_0_33_217
*1021 FILLER_0_33_223
*1022 FILLER_0_33_225
*1023 FILLER_0_33_237
*1024 FILLER_0_33_249
*1025 FILLER_0_33_261
*1026 FILLER_0_33_27
*1027 FILLER_0_33_273
*1028 FILLER_0_33_279
*1029 FILLER_0_33_281
*1030 FILLER_0_33_293
*1031 FILLER_0_33_3
*1032 FILLER_0_33_305
*1033 FILLER_0_33_317
*1034 FILLER_0_33_329
*1035 FILLER_0_33_39
*1036 FILLER_0_33_51
*1037 FILLER_0_33_55
*1038 FILLER_0_33_57
*1039 FILLER_0_33_69
*1040 FILLER_0_33_81
*1041 FILLER_0_33_93
*1042 FILLER_0_34_109
*1043 FILLER_0_34_121
*1044 FILLER_0_34_133
*1045 FILLER_0_34_139
*1046 FILLER_0_34_141
*1047 FILLER_0_34_15
*1048 FILLER_0_34_153
*1049 FILLER_0_34_165
*1050 FILLER_0_34_177
*1051 FILLER_0_34_189
*1052 FILLER_0_34_195
*1053 FILLER_0_34_197
*1054 FILLER_0_34_209
*1055 FILLER_0_34_221
*1056 FILLER_0_34_233
*1057 FILLER_0_34_245
*1058 FILLER_0_34_251
*1059 FILLER_0_34_253
*1060 FILLER_0_34_265
*1061 FILLER_0_34_27
*1062 FILLER_0_34_277
*1063 FILLER_0_34_289
*1064 FILLER_0_34_29
*1065 FILLER_0_34_3
*1066 FILLER_0_34_301
*1067 FILLER_0_34_307
*1068 FILLER_0_34_309
*1069 FILLER_0_34_321
*1070 FILLER_0_34_333
*1071 FILLER_0_34_41
*1072 FILLER_0_34_53
*1073 FILLER_0_34_65
*1074 FILLER_0_34_77
*1075 FILLER_0_34_83
*1076 FILLER_0_34_85
*1077 FILLER_0_34_97
*1078 FILLER_0_35_105
*1079 FILLER_0_35_111
*1080 FILLER_0_35_113
*1081 FILLER_0_35_125
*1082 FILLER_0_35_137
*1083 FILLER_0_35_149
*1084 FILLER_0_35_15
*1085 FILLER_0_35_161
*1086 FILLER_0_35_167
*1087 FILLER_0_35_169
*1088 FILLER_0_35_181
*1089 FILLER_0_35_193
*1090 FILLER_0_35_205
*1091 FILLER_0_35_217
*1092 FILLER_0_35_223
*1093 FILLER_0_35_225
*1094 FILLER_0_35_237
*1095 FILLER_0_35_249
*1096 FILLER_0_35_261
*1097 FILLER_0_35_27
*1098 FILLER_0_35_3
*1099 FILLER_0_35_301
*1100 FILLER_0_35_313
*1101 FILLER_0_35_325
*1102 FILLER_0_35_333
*1103 FILLER_0_35_39
*1104 FILLER_0_35_51
*1105 FILLER_0_35_55
*1106 FILLER_0_35_57
*1107 FILLER_0_35_69
*1108 FILLER_0_35_81
*1109 FILLER_0_35_93
*1110 FILLER_0_36_109
*1111 FILLER_0_36_121
*1112 FILLER_0_36_133
*1113 FILLER_0_36_139
*1114 FILLER_0_36_141
*1115 FILLER_0_36_15
*1116 FILLER_0_36_153
*1117 FILLER_0_36_165
*1118 FILLER_0_36_177
*1119 FILLER_0_36_189
*1120 FILLER_0_36_195
*1121 FILLER_0_36_197
*1122 FILLER_0_36_209
*1123 FILLER_0_36_221
*1124 FILLER_0_36_233
*1125 FILLER_0_36_245
*1126 FILLER_0_36_251
*1127 FILLER_0_36_253
*1128 FILLER_0_36_262
*1129 FILLER_0_36_268
*1130 FILLER_0_36_27
*1131 FILLER_0_36_29
*1132 FILLER_0_36_298
*1133 FILLER_0_36_3
*1134 FILLER_0_36_302
*1135 FILLER_0_36_325
*1136 FILLER_0_36_333
*1137 FILLER_0_36_41
*1138 FILLER_0_36_53
*1139 FILLER_0_36_65
*1140 FILLER_0_36_77
*1141 FILLER_0_36_83
*1142 FILLER_0_36_85
*1143 FILLER_0_36_97
*1144 FILLER_0_37_105
*1145 FILLER_0_37_111
*1146 FILLER_0_37_113
*1147 FILLER_0_37_125
*1148 FILLER_0_37_137
*1149 FILLER_0_37_149
*1150 FILLER_0_37_15
*1151 FILLER_0_37_160
*1152 FILLER_0_37_164
*1153 FILLER_0_37_169
*1154 FILLER_0_37_177
*1155 FILLER_0_37_185
*1156 FILLER_0_37_197
*1157 FILLER_0_37_209
*1158 FILLER_0_37_221
*1159 FILLER_0_37_225
*1160 FILLER_0_37_233
*1161 FILLER_0_37_240
*1162 FILLER_0_37_27
*1163 FILLER_0_37_271
*1164 FILLER_0_37_279
*1165 FILLER_0_37_281
*1166 FILLER_0_37_293
*1167 FILLER_0_37_3
*1168 FILLER_0_37_334
*1169 FILLER_0_37_39
*1170 FILLER_0_37_51
*1171 FILLER_0_37_55
*1172 FILLER_0_37_57
*1173 FILLER_0_37_69
*1174 FILLER_0_37_81
*1175 FILLER_0_37_93
*1176 FILLER_0_38_10
*1177 FILLER_0_38_102
*1178 FILLER_0_38_106
*1179 FILLER_0_38_110
*1180 FILLER_0_38_113
*1181 FILLER_0_38_118
*1182 FILLER_0_38_122
*1183 FILLER_0_38_126
*1184 FILLER_0_38_138
*1185 FILLER_0_38_14
*1186 FILLER_0_38_141
*1187 FILLER_0_38_147
*1188 FILLER_0_38_152
*1189 FILLER_0_38_158
*1190 FILLER_0_38_166
*1191 FILLER_0_38_173
*1192 FILLER_0_38_18
*1193 FILLER_0_38_190
*1194 FILLER_0_38_197
*1195 FILLER_0_38_209
*1196 FILLER_0_38_22
*1197 FILLER_0_38_221
*1198 FILLER_0_38_234
*1199 FILLER_0_38_239
*1200 FILLER_0_38_251
*1201 FILLER_0_38_265
*1202 FILLER_0_38_270
*1203 FILLER_0_38_274
*1204 FILLER_0_38_278
*1205 FILLER_0_38_281
*1206 FILLER_0_38_288
*1207 FILLER_0_38_294
*1208 FILLER_0_38_32
*1209 FILLER_0_38_38
*1210 FILLER_0_38_42
*1211 FILLER_0_38_46
*1212 FILLER_0_38_50
*1213 FILLER_0_38_54
*1214 FILLER_0_38_57
*1215 FILLER_0_38_6
*1216 FILLER_0_38_62
*1217 FILLER_0_38_66
*1218 FILLER_0_38_70
*1219 FILLER_0_38_74
*1220 FILLER_0_38_78
*1221 FILLER_0_38_88
*1222 FILLER_0_38_94
*1223 FILLER_0_38_98
*1224 FILLER_0_3_105
*1225 FILLER_0_3_111
*1226 FILLER_0_3_113
*1227 FILLER_0_3_125
*1228 FILLER_0_3_137
*1229 FILLER_0_3_149
*1230 FILLER_0_3_15
*1231 FILLER_0_3_161
*1232 FILLER_0_3_167
*1233 FILLER_0_3_169
*1234 FILLER_0_3_181
*1235 FILLER_0_3_193
*1236 FILLER_0_3_205
*1237 FILLER_0_3_217
*1238 FILLER_0_3_223
*1239 FILLER_0_3_225
*1240 FILLER_0_3_237
*1241 FILLER_0_3_249
*1242 FILLER_0_3_261
*1243 FILLER_0_3_27
*1244 FILLER_0_3_273
*1245 FILLER_0_3_279
*1246 FILLER_0_3_281
*1247 FILLER_0_3_293
*1248 FILLER_0_3_3
*1249 FILLER_0_3_305
*1250 FILLER_0_3_317
*1251 FILLER_0_3_329
*1252 FILLER_0_3_39
*1253 FILLER_0_3_51
*1254 FILLER_0_3_55
*1255 FILLER_0_3_57
*1256 FILLER_0_3_69
*1257 FILLER_0_3_81
*1258 FILLER_0_3_93
*1259 FILLER_0_4_109
*1260 FILLER_0_4_121
*1261 FILLER_0_4_133
*1262 FILLER_0_4_139
*1263 FILLER_0_4_141
*1264 FILLER_0_4_15
*1265 FILLER_0_4_153
*1266 FILLER_0_4_165
*1267 FILLER_0_4_177
*1268 FILLER_0_4_189
*1269 FILLER_0_4_195
*1270 FILLER_0_4_197
*1271 FILLER_0_4_209
*1272 FILLER_0_4_221
*1273 FILLER_0_4_233
*1274 FILLER_0_4_245
*1275 FILLER_0_4_251
*1276 FILLER_0_4_253
*1277 FILLER_0_4_265
*1278 FILLER_0_4_27
*1279 FILLER_0_4_277
*1280 FILLER_0_4_289
*1281 FILLER_0_4_29
*1282 FILLER_0_4_3
*1283 FILLER_0_4_301
*1284 FILLER_0_4_307
*1285 FILLER_0_4_309
*1286 FILLER_0_4_321
*1287 FILLER_0_4_333
*1288 FILLER_0_4_41
*1289 FILLER_0_4_53
*1290 FILLER_0_4_65
*1291 FILLER_0_4_77
*1292 FILLER_0_4_83
*1293 FILLER_0_4_85
*1294 FILLER_0_4_97
*1295 FILLER_0_5_105
*1296 FILLER_0_5_111
*1297 FILLER_0_5_113
*1298 FILLER_0_5_125
*1299 FILLER_0_5_137
*1300 FILLER_0_5_149
*1301 FILLER_0_5_15
*1302 FILLER_0_5_161
*1303 FILLER_0_5_167
*1304 FILLER_0_5_169
*1305 FILLER_0_5_181
*1306 FILLER_0_5_193
*1307 FILLER_0_5_205
*1308 FILLER_0_5_217
*1309 FILLER_0_5_223
*1310 FILLER_0_5_225
*1311 FILLER_0_5_237
*1312 FILLER_0_5_249
*1313 FILLER_0_5_261
*1314 FILLER_0_5_27
*1315 FILLER_0_5_273
*1316 FILLER_0_5_279
*1317 FILLER_0_5_281
*1318 FILLER_0_5_293
*1319 FILLER_0_5_3
*1320 FILLER_0_5_305
*1321 FILLER_0_5_317
*1322 FILLER_0_5_329
*1323 FILLER_0_5_39
*1324 FILLER_0_5_51
*1325 FILLER_0_5_55
*1326 FILLER_0_5_57
*1327 FILLER_0_5_69
*1328 FILLER_0_5_81
*1329 FILLER_0_5_93
*1330 FILLER_0_6_109
*1331 FILLER_0_6_121
*1332 FILLER_0_6_133
*1333 FILLER_0_6_139
*1334 FILLER_0_6_141
*1335 FILLER_0_6_15
*1336 FILLER_0_6_153
*1337 FILLER_0_6_165
*1338 FILLER_0_6_177
*1339 FILLER_0_6_189
*1340 FILLER_0_6_195
*1341 FILLER_0_6_197
*1342 FILLER_0_6_209
*1343 FILLER_0_6_221
*1344 FILLER_0_6_233
*1345 FILLER_0_6_245
*1346 FILLER_0_6_251
*1347 FILLER_0_6_253
*1348 FILLER_0_6_265
*1349 FILLER_0_6_27
*1350 FILLER_0_6_277
*1351 FILLER_0_6_289
*1352 FILLER_0_6_29
*1353 FILLER_0_6_3
*1354 FILLER_0_6_301
*1355 FILLER_0_6_307
*1356 FILLER_0_6_309
*1357 FILLER_0_6_321
*1358 FILLER_0_6_333
*1359 FILLER_0_6_41
*1360 FILLER_0_6_53
*1361 FILLER_0_6_65
*1362 FILLER_0_6_77
*1363 FILLER_0_6_83
*1364 FILLER_0_6_85
*1365 FILLER_0_6_97
*1366 FILLER_0_7_105
*1367 FILLER_0_7_111
*1368 FILLER_0_7_113
*1369 FILLER_0_7_125
*1370 FILLER_0_7_137
*1371 FILLER_0_7_149
*1372 FILLER_0_7_15
*1373 FILLER_0_7_161
*1374 FILLER_0_7_167
*1375 FILLER_0_7_169
*1376 FILLER_0_7_181
*1377 FILLER_0_7_193
*1378 FILLER_0_7_205
*1379 FILLER_0_7_217
*1380 FILLER_0_7_223
*1381 FILLER_0_7_225
*1382 FILLER_0_7_237
*1383 FILLER_0_7_249
*1384 FILLER_0_7_261
*1385 FILLER_0_7_27
*1386 FILLER_0_7_273
*1387 FILLER_0_7_279
*1388 FILLER_0_7_281
*1389 FILLER_0_7_293
*1390 FILLER_0_7_3
*1391 FILLER_0_7_305
*1392 FILLER_0_7_317
*1393 FILLER_0_7_329
*1394 FILLER_0_7_39
*1395 FILLER_0_7_51
*1396 FILLER_0_7_55
*1397 FILLER_0_7_57
*1398 FILLER_0_7_69
*1399 FILLER_0_7_81
*1400 FILLER_0_7_93
*1401 FILLER_0_8_109
*1402 FILLER_0_8_121
*1403 FILLER_0_8_133
*1404 FILLER_0_8_139
*1405 FILLER_0_8_141
*1406 FILLER_0_8_15
*1407 FILLER_0_8_153
*1408 FILLER_0_8_165
*1409 FILLER_0_8_177
*1410 FILLER_0_8_189
*1411 FILLER_0_8_195
*1412 FILLER_0_8_197
*1413 FILLER_0_8_209
*1414 FILLER_0_8_221
*1415 FILLER_0_8_233
*1416 FILLER_0_8_245
*1417 FILLER_0_8_251
*1418 FILLER_0_8_253
*1419 FILLER_0_8_265
*1420 FILLER_0_8_27
*1421 FILLER_0_8_277
*1422 FILLER_0_8_289
*1423 FILLER_0_8_29
*1424 FILLER_0_8_3
*1425 FILLER_0_8_301
*1426 FILLER_0_8_307
*1427 FILLER_0_8_309
*1428 FILLER_0_8_321
*1429 FILLER_0_8_333
*1430 FILLER_0_8_41
*1431 FILLER_0_8_53
*1432 FILLER_0_8_65
*1433 FILLER_0_8_77
*1434 FILLER_0_8_83
*1435 FILLER_0_8_85
*1436 FILLER_0_8_97
*1437 FILLER_0_9_105
*1438 FILLER_0_9_111
*1439 FILLER_0_9_113
*1440 FILLER_0_9_125
*1441 FILLER_0_9_137
*1442 FILLER_0_9_149
*1443 FILLER_0_9_15
*1444 FILLER_0_9_161
*1445 FILLER_0_9_167
*1446 FILLER_0_9_169
*1447 FILLER_0_9_181
*1448 FILLER_0_9_193
*1449 FILLER_0_9_205
*1450 FILLER_0_9_217
*1451 FILLER_0_9_223
*1452 FILLER_0_9_225
*1453 FILLER_0_9_237
*1454 FILLER_0_9_249
*1455 FILLER_0_9_261
*1456 FILLER_0_9_27
*1457 FILLER_0_9_273
*1458 FILLER_0_9_279
*1459 FILLER_0_9_281
*1460 FILLER_0_9_293
*1461 FILLER_0_9_3
*1462 FILLER_0_9_305
*1463 FILLER_0_9_317
*1464 FILLER_0_9_329
*1465 FILLER_0_9_39