*SPEF "ieee 1481-1999"
*DESIGN "tt_um_dr_skyler_clock"
*DATE "00:35:35 Friday April 19, 2024"
*VENDOR "The OpenROAD Project"
*PROGRAM "OpenROAD"
*VERSION "0889970d1790a2617e69f253221b8bd7626e51dc"
*DESIGN_FLOW "NAME_SCOPE LOCAL" "PIN_CAP NONE"
*DIVIDER /
*DELIMITER :
*BUS_DELIMITER []
*T_UNIT 1 NS
*C_UNIT 1 PF
*R_UNIT 1 OHM
*L_UNIT 1 HENRY

*NAME_MAP
*3 clk
*4 ena
*5 rst_n
*6 ui_in[0]
*7 ui_in[1]
*8 ui_in[2]
*9 ui_in[3]
*10 ui_in[4]
*11 ui_in[5]
*12 ui_in[6]
*13 ui_in[7]
*14 uio_in[0]
*15 uio_in[1]
*16 uio_in[2]
*17 uio_in[3]
*18 uio_in[4]
*19 uio_in[5]
*20 uio_in[6]
*21 uio_in[7]
*22 net15
*23 net16
*24 net17
*25 net18
*26 net19
*27 net20
*28 net21
*29 net22
*30 net23
*31 net24
*32 net25
*33 net26
*34 net27
*35 net28
*36 net29
*37 net30
*38 uo_out[0]
*39 uo_out[1]
*40 uo_out[2]
*41 uo_out[3]
*42 uo_out[4]
*43 uo_out[5]
*44 uo_out[6]
*45 uo_out[7]
*46 _000_
*47 _001_
*48 _002_
*49 _003_
*50 _004_
*51 _005_
*52 _006_
*53 _007_
*54 _008_
*55 _009_
*56 _010_
*57 _011_
*58 _012_
*59 _013_
*60 _014_
*61 _015_
*62 _016_
*63 _017_
*64 _018_
*65 _019_
*66 _020_
*67 _021_
*68 _022_
*69 _023_
*70 _024_
*71 _025_
*72 _026_
*73 _027_
*74 _028_
*75 _029_
*76 _030_
*77 _031_
*78 _032_
*79 _033_
*80 _034_
*81 _035_
*82 _036_
*83 _037_
*84 _038_
*85 _039_
*86 _040_
*87 _041_
*88 _042_
*89 _043_
*90 _044_
*91 _045_
*92 _046_
*93 _047_
*94 _048_
*95 _049_
*96 _050_
*97 _051_
*98 _052_
*99 _053_
*100 _054_
*101 _055_
*102 _056_
*103 _057_
*104 _058_
*105 _059_
*106 _060_
*107 _061_
*108 _062_
*109 _063_
*110 _064_
*111 _065_
*112 _066_
*113 _067_
*114 _068_
*115 _069_
*116 _070_
*117 _071_
*118 _072_
*119 _073_
*120 _074_
*121 _075_
*122 _076_
*123 _077_
*124 _078_
*125 _079_
*126 _080_
*127 _081_
*128 _082_
*129 _083_
*130 _084_
*131 _085_
*132 _086_
*133 _087_
*134 _088_
*135 _089_
*136 _090_
*137 _091_
*138 _092_
*139 _093_
*140 _094_
*141 _095_
*142 _096_
*143 _097_
*144 _098_
*145 _099_
*146 _100_
*147 _101_
*148 _102_
*149 _103_
*150 _104_
*151 _105_
*152 _106_
*153 _107_
*154 _108_
*155 _109_
*156 _110_
*157 _111_
*158 _112_
*159 _113_
*160 _114_
*161 _115_
*162 _116_
*163 _117_
*164 _118_
*165 _119_
*166 _120_
*167 _121_
*168 _122_
*169 _123_
*170 _124_
*171 _125_
*172 _126_
*173 _127_
*174 _128_
*175 _129_
*176 _130_
*177 _131_
*178 _132_
*179 _133_
*180 _134_
*181 _135_
*182 _136_
*183 _137_
*184 _138_
*185 _139_
*186 _140_
*187 _141_
*188 _142_
*189 _143_
*190 _144_
*191 _145_
*192 _146_
*193 _147_
*194 _148_
*195 _149_
*196 _150_
*197 _151_
*198 _152_
*199 _153_
*200 _154_
*201 _155_
*202 _156_
*203 _157_
*204 _158_
*205 _159_
*206 _160_
*207 _161_
*208 _162_
*209 _163_
*210 _164_
*211 _165_
*212 _166_
*213 _167_
*214 _168_
*215 _169_
*216 _170_
*217 _171_
*218 _172_
*219 _173_
*220 _174_
*221 _175_
*222 _176_
*223 _177_
*224 _178_
*225 _179_
*226 _180_
*227 _181_
*228 _182_
*229 _183_
*230 _184_
*231 _185_
*232 _186_
*233 _187_
*234 _188_
*235 _189_
*236 _190_
*237 _191_
*238 _192_
*239 _193_
*240 _194_
*241 _195_
*242 _196_
*243 _197_
*244 _198_
*245 _199_
*246 _200_
*247 _201_
*248 _202_
*249 _203_
*250 _204_
*251 _205_
*252 _206_
*253 _207_
*254 _208_
*255 _209_
*256 _210_
*257 _211_
*258 _212_
*259 _213_
*260 _214_
*261 _215_
*262 _216_
*263 _217_
*264 _218_
*265 _219_
*266 _220_
*267 _221_
*268 _222_
*269 _223_
*270 _224_
*271 _225_
*272 _226_
*273 _227_
*274 _228_
*275 _229_
*276 _230_
*277 _231_
*278 _232_
*279 _233_
*280 _234_
*281 _235_
*282 _236_
*283 _237_
*284 _238_
*285 _239_
*286 _240_
*287 _241_
*288 _242_
*289 _243_
*290 _244_
*291 _245_
*292 _246_
*293 _247_
*294 _248_
*295 _249_
*296 _250_
*297 _251_
*298 _252_
*299 _253_
*300 _254_
*301 _255_
*302 _256_
*303 _257_
*304 _258_
*305 _259_
*306 _260_
*307 _261_
*308 _262_
*309 _263_
*310 _264_
*311 _265_
*312 _266_
*313 _267_
*314 _268_
*315 _269_
*316 _270_
*317 _271_
*318 _272_
*319 _273_
*320 _274_
*321 _275_
*322 _276_
*323 _277_
*324 _278_
*325 _279_
*326 _280_
*327 _281_
*328 _282_
*329 _283_
*330 _284_
*331 _285_
*332 _286_
*333 _287_
*334 _288_
*335 _289_
*336 _290_
*337 _291_
*338 _292_
*339 _293_
*340 _294_
*341 _295_
*342 _296_
*343 _297_
*344 _298_
*345 _299_
*346 _300_
*347 _301_
*348 _302_
*349 _303_
*350 _304_
*351 _305_
*352 _306_
*353 _307_
*354 _308_
*355 _309_
*356 _310_
*357 _311_
*358 _312_
*359 _313_
*360 _314_
*361 _315_
*362 _316_
*363 _317_
*364 _318_
*365 _319_
*366 _320_
*367 _321_
*368 _322_
*369 _323_
*370 _324_
*371 _325_
*372 _326_
*373 _327_
*374 _328_
*375 _329_
*376 _330_
*377 _331_
*378 _332_
*379 _333_
*380 _334_
*381 _335_
*382 _336_
*383 _337_
*384 _338_
*385 _339_
*386 _340_
*387 _341_
*388 _342_
*389 clknet_0_clk
*390 clknet_3_0__leaf_clk
*391 clknet_3_1__leaf_clk
*392 clknet_3_2__leaf_clk
*393 clknet_3_3__leaf_clk
*394 clknet_3_4__leaf_clk
*395 clknet_3_5__leaf_clk
*396 clknet_3_6__leaf_clk
*397 clknet_3_7__leaf_clk
*398 cnt\[0\]
*399 cnt\[10\]
*400 cnt\[11\]
*401 cnt\[12\]
*402 cnt\[13\]
*403 cnt\[1\]
*404 cnt\[2\]
*405 cnt\[3\]
*406 cnt\[4\]
*407 cnt\[5\]
*408 cnt\[6\]
*409 cnt\[7\]
*410 cnt\[8\]
*411 cnt\[9\]
*412 inputs_candidate\[1\]
*413 inputs_candidate\[2\]
*414 inputs_candidate\[3\]
*415 inputs_candidate\[4\]
*416 inputs_candidate\[5\]
*417 inputs_candidate\[6\]
*418 inputs_candidate\[7\]
*419 inputs_candidate\[8\]
*420 inputs_candidate\[9\]
*421 inputs_ff\[0\]
*422 inputs_ff\[1\]
*423 inputs_ff\[2\]
*424 inputs_ff\[3\]
*425 inputs_ff\[4\]
*426 inputs_ff\[5\]
*427 inputs_ff\[6\]
*428 inputs_ff\[7\]
*429 inputs_ff\[8\]
*430 inputs_ff\[9\]
*431 inputs_sync\[0\]
*432 inputs_sync\[1\]
*433 inputs_sync\[2\]
*434 inputs_sync\[3\]
*435 inputs_sync\[4\]
*436 inputs_sync\[5\]
*437 inputs_sync\[6\]
*438 inputs_sync\[7\]
*439 inputs_sync\[8\]
*440 inputs_sync\[9\]
*441 my_design\.DEBUG_SIGS_GTKWAVE\.\@0\$slideswitch\[0\]
*442 my_design\.DEBUG_SIGS_GTKWAVE\.\@0\$slideswitch\[1\]
*443 my_design\.DEBUG_SIGS_GTKWAVE\.\@0\$slideswitch\[2\]
*444 my_design\.DEBUG_SIGS_GTKWAVE\.\@0\$slideswitch\[3\]
*445 my_design\.DEBUG_SIGS_GTKWAVE\.\@0\$slideswitch\[4\]
*446 my_design\.DEBUG_SIGS_GTKWAVE\.\@0\$slideswitch\[5\]
*447 my_design\.DEBUG_SIGS_GTKWAVE\.\@0\$slideswitch\[6\]
*448 my_design\.DEBUG_SIGS_GTKWAVE\.\@0\$slideswitch\[7\]
*449 my_design\.DEBUG_SIGS_GTKWAVE\.\@0\$sseg_decimal_point_n
*450 my_design\.DEBUG_SIGS_GTKWAVE\.\@0\$sseg_segment_n\[0\]
*451 my_design\.DEBUG_SIGS_GTKWAVE\.\@0\$sseg_segment_n\[1\]
*452 my_design\.DEBUG_SIGS_GTKWAVE\.\@0\$sseg_segment_n\[2\]
*453 my_design\.DEBUG_SIGS_GTKWAVE\.\@0\$sseg_segment_n\[3\]
*454 my_design\.DEBUG_SIGS_GTKWAVE\.\@0\$sseg_segment_n\[4\]
*455 my_design\.DEBUG_SIGS_GTKWAVE\.\@0\$sseg_segment_n\[5\]
*456 my_design\.DEBUG_SIGS_GTKWAVE\.\@0\$sseg_segment_n\[6\]
*457 my_design\.DEBUG_SIGS_GTKWAVE\.\/digit\[0\]\.\/leds\[0\]\.\/\/\@0\$viz_lit
*458 my_design\.DEBUG_SIGS_GTKWAVE\.\/digit\[0\]\.\/leds\[1\]\.\/\/\@0\$viz_lit
*459 my_design\.DEBUG_SIGS_GTKWAVE\.\/digit\[0\]\.\/leds\[2\]\.\/\/\@0\$viz_lit
*460 my_design\.DEBUG_SIGS_GTKWAVE\.\/digit\[0\]\.\/leds\[3\]\.\/\/\@0\$viz_lit
*461 my_design\.DEBUG_SIGS_GTKWAVE\.\/digit\[0\]\.\/leds\[4\]\.\/\/\@0\$viz_lit
*462 my_design\.DEBUG_SIGS_GTKWAVE\.\/digit\[0\]\.\/leds\[5\]\.\/\/\@0\$viz_lit
*463 my_design\.DEBUG_SIGS_GTKWAVE\.\/digit\[0\]\.\/leds\[6\]\.\/\/\@0\$viz_lit
*464 my_design\.DEBUG_SIGS_GTKWAVE\.\/digit\[0\]\.\/leds\[7\]\.\/\/\@0\$viz_lit
*465 my_design\.DEBUG_SIGS_GTKWAVE\.\/fpga_pins\.\/fpga\.P_clock_time\.\/\/\/\@0\$cycounter\[0\]
*466 my_design\.DEBUG_SIGS_GTKWAVE\.\/fpga_pins\.\/fpga\.P_clock_time\.\/\/\/\@0\$cycounter\[10\]
*467 my_design\.DEBUG_SIGS_GTKWAVE\.\/fpga_pins\.\/fpga\.P_clock_time\.\/\/\/\@0\$cycounter\[11\]
*468 my_design\.DEBUG_SIGS_GTKWAVE\.\/fpga_pins\.\/fpga\.P_clock_time\.\/\/\/\@0\$cycounter\[12\]
*469 my_design\.DEBUG_SIGS_GTKWAVE\.\/fpga_pins\.\/fpga\.P_clock_time\.\/\/\/\@0\$cycounter\[13\]
*470 my_design\.DEBUG_SIGS_GTKWAVE\.\/fpga_pins\.\/fpga\.P_clock_time\.\/\/\/\@0\$cycounter\[14\]
*471 my_design\.DEBUG_SIGS_GTKWAVE\.\/fpga_pins\.\/fpga\.P_clock_time\.\/\/\/\@0\$cycounter\[15\]
*472 my_design\.DEBUG_SIGS_GTKWAVE\.\/fpga_pins\.\/fpga\.P_clock_time\.\/\/\/\@0\$cycounter\[16\]
*473 my_design\.DEBUG_SIGS_GTKWAVE\.\/fpga_pins\.\/fpga\.P_clock_time\.\/\/\/\@0\$cycounter\[17\]
*474 my_design\.DEBUG_SIGS_GTKWAVE\.\/fpga_pins\.\/fpga\.P_clock_time\.\/\/\/\@0\$cycounter\[18\]
*475 my_design\.DEBUG_SIGS_GTKWAVE\.\/fpga_pins\.\/fpga\.P_clock_time\.\/\/\/\@0\$cycounter\[19\]
*476 my_design\.DEBUG_SIGS_GTKWAVE\.\/fpga_pins\.\/fpga\.P_clock_time\.\/\/\/\@0\$cycounter\[1\]
*477 my_design\.DEBUG_SIGS_GTKWAVE\.\/fpga_pins\.\/fpga\.P_clock_time\.\/\/\/\@0\$cycounter\[20\]
*478 my_design\.DEBUG_SIGS_GTKWAVE\.\/fpga_pins\.\/fpga\.P_clock_time\.\/\/\/\@0\$cycounter\[21\]
*479 my_design\.DEBUG_SIGS_GTKWAVE\.\/fpga_pins\.\/fpga\.P_clock_time\.\/\/\/\@0\$cycounter\[22\]
*480 my_design\.DEBUG_SIGS_GTKWAVE\.\/fpga_pins\.\/fpga\.P_clock_time\.\/\/\/\@0\$cycounter\[23\]
*481 my_design\.DEBUG_SIGS_GTKWAVE\.\/fpga_pins\.\/fpga\.P_clock_time\.\/\/\/\@0\$cycounter\[24\]
*482 my_design\.DEBUG_SIGS_GTKWAVE\.\/fpga_pins\.\/fpga\.P_clock_time\.\/\/\/\@0\$cycounter\[2\]
*483 my_design\.DEBUG_SIGS_GTKWAVE\.\/fpga_pins\.\/fpga\.P_clock_time\.\/\/\/\@0\$cycounter\[3\]
*484 my_design\.DEBUG_SIGS_GTKWAVE\.\/fpga_pins\.\/fpga\.P_clock_time\.\/\/\/\@0\$cycounter\[4\]
*485 my_design\.DEBUG_SIGS_GTKWAVE\.\/fpga_pins\.\/fpga\.P_clock_time\.\/\/\/\@0\$cycounter\[5\]
*486 my_design\.DEBUG_SIGS_GTKWAVE\.\/fpga_pins\.\/fpga\.P_clock_time\.\/\/\/\@0\$cycounter\[6\]
*487 my_design\.DEBUG_SIGS_GTKWAVE\.\/fpga_pins\.\/fpga\.P_clock_time\.\/\/\/\@0\$cycounter\[7\]
*488 my_design\.DEBUG_SIGS_GTKWAVE\.\/fpga_pins\.\/fpga\.P_clock_time\.\/\/\/\@0\$cycounter\[8\]
*489 my_design\.DEBUG_SIGS_GTKWAVE\.\/fpga_pins\.\/fpga\.P_clock_time\.\/\/\/\@0\$cycounter\[9\]
*490 my_design\.DEBUG_SIGS_GTKWAVE\.\/fpga_pins\.\/fpga\.P_clock_time\.\/\/\/\@0\$digit\[0\]
*491 my_design\.DEBUG_SIGS_GTKWAVE\.\/fpga_pins\.\/fpga\.P_clock_time\.\/\/\/\@0\$digit\[1\]
*492 my_design\.DEBUG_SIGS_GTKWAVE\.\/fpga_pins\.\/fpga\.P_clock_time\.\/\/\/\@0\$digit\[2\]
*493 my_design\.DEBUG_SIGS_GTKWAVE\.\/fpga_pins\.\/fpga\.P_clock_time\.\/\/\/\@0\$digit\[3\]
*494 my_design\.DEBUG_SIGS_GTKWAVE\.\/fpga_pins\.\/fpga\.P_clock_time\.\/\/\/\@0\$display_hours\[0\]
*495 my_design\.DEBUG_SIGS_GTKWAVE\.\/fpga_pins\.\/fpga\.P_clock_time\.\/\/\/\@0\$display_hours\[1\]
*496 my_design\.DEBUG_SIGS_GTKWAVE\.\/fpga_pins\.\/fpga\.P_clock_time\.\/\/\/\@0\$display_hours\[2\]
*497 my_design\.DEBUG_SIGS_GTKWAVE\.\/fpga_pins\.\/fpga\.P_clock_time\.\/\/\/\@0\$display_hours\[3\]
*498 my_design\.DEBUG_SIGS_GTKWAVE\.\/fpga_pins\.\/fpga\.P_clock_time\.\/\/\/\@0\$display_minutes\[0\]
*499 my_design\.DEBUG_SIGS_GTKWAVE\.\/fpga_pins\.\/fpga\.P_clock_time\.\/\/\/\@0\$display_minutes\[1\]
*500 my_design\.DEBUG_SIGS_GTKWAVE\.\/fpga_pins\.\/fpga\.P_clock_time\.\/\/\/\@0\$display_minutes\[2\]
*501 my_design\.DEBUG_SIGS_GTKWAVE\.\/fpga_pins\.\/fpga\.P_clock_time\.\/\/\/\@0\$display_minutes\[3\]
*502 my_design\.DEBUG_SIGS_GTKWAVE\.\/fpga_pins\.\/fpga\.P_clock_time\.\/\/\/\@0\$display_seconds\[0\]
*503 my_design\.DEBUG_SIGS_GTKWAVE\.\/fpga_pins\.\/fpga\.P_clock_time\.\/\/\/\@0\$display_seconds\[1\]
*504 my_design\.DEBUG_SIGS_GTKWAVE\.\/fpga_pins\.\/fpga\.P_clock_time\.\/\/\/\@0\$display_seconds\[2\]
*505 my_design\.DEBUG_SIGS_GTKWAVE\.\/fpga_pins\.\/fpga\.P_clock_time\.\/\/\/\@0\$display_seconds\[3\]
*506 my_design\.DEBUG_SIGS_GTKWAVE\.\/fpga_pins\.\/fpga\.P_clock_time\.\/\/\/\@0\$display_switch
*507 my_design\.DEBUG_SIGS_GTKWAVE\.\/fpga_pins\.\/fpga\.P_clock_time\.\/\/\/\@0\$frequency\[10\]
*508 my_design\.DEBUG_SIGS_GTKWAVE\.\/fpga_pins\.\/fpga\.P_clock_time\.\/\/\/\@0\$frequency\[11\]
*509 my_design\.DEBUG_SIGS_GTKWAVE\.\/fpga_pins\.\/fpga\.P_clock_time\.\/\/\/\@0\$frequency\[12\]
*510 my_design\.DEBUG_SIGS_GTKWAVE\.\/fpga_pins\.\/fpga\.P_clock_time\.\/\/\/\@0\$frequency\[13\]
*511 my_design\.DEBUG_SIGS_GTKWAVE\.\/fpga_pins\.\/fpga\.P_clock_time\.\/\/\/\@0\$frequency\[15\]
*512 my_design\.DEBUG_SIGS_GTKWAVE\.\/fpga_pins\.\/fpga\.P_clock_time\.\/\/\/\@0\$frequency\[16\]
*513 my_design\.DEBUG_SIGS_GTKWAVE\.\/fpga_pins\.\/fpga\.P_clock_time\.\/\/\/\@0\$frequency\[17\]
*514 my_design\.DEBUG_SIGS_GTKWAVE\.\/fpga_pins\.\/fpga\.P_clock_time\.\/\/\/\@0\$frequency\[18\]
*515 my_design\.DEBUG_SIGS_GTKWAVE\.\/fpga_pins\.\/fpga\.P_clock_time\.\/\/\/\@0\$frequency\[19\]
*516 my_design\.DEBUG_SIGS_GTKWAVE\.\/fpga_pins\.\/fpga\.P_clock_time\.\/\/\/\@0\$frequency\[21\]
*517 my_design\.DEBUG_SIGS_GTKWAVE\.\/fpga_pins\.\/fpga\.P_clock_time\.\/\/\/\@0\$frequency\[22\]
*518 my_design\.DEBUG_SIGS_GTKWAVE\.\/fpga_pins\.\/fpga\.P_clock_time\.\/\/\/\@0\$frequency\[23\]
*519 my_design\.DEBUG_SIGS_GTKWAVE\.\/fpga_pins\.\/fpga\.P_clock_time\.\/\/\/\@0\$frequency\[24\]
*520 my_design\.DEBUG_SIGS_GTKWAVE\.\/fpga_pins\.\/fpga\.P_clock_time\.\/\/\/\@0\$frequency\[7\]
*521 my_design\.DEBUG_SIGS_GTKWAVE\.\/fpga_pins\.\/fpga\.P_clock_time\.\/\/\/\@0\$frequency\[8\]
*522 my_design\.DEBUG_SIGS_GTKWAVE\.\/fpga_pins\.\/fpga\.P_clock_time\.\/\/\/\@0\$frequency\[9\]
*523 my_design\.DEBUG_SIGS_GTKWAVE\.\/fpga_pins\.\/fpga\.P_clock_time\.\/\/\/\@0\$hour_ones_digit\[0\]
*524 my_design\.DEBUG_SIGS_GTKWAVE\.\/fpga_pins\.\/fpga\.P_clock_time\.\/\/\/\@0\$hour_ones_digit\[1\]
*525 my_design\.DEBUG_SIGS_GTKWAVE\.\/fpga_pins\.\/fpga\.P_clock_time\.\/\/\/\@0\$hour_ones_digit\[2\]
*526 my_design\.DEBUG_SIGS_GTKWAVE\.\/fpga_pins\.\/fpga\.P_clock_time\.\/\/\/\@0\$hour_ones_digit\[3\]
*527 my_design\.DEBUG_SIGS_GTKWAVE\.\/fpga_pins\.\/fpga\.P_clock_time\.\/\/\/\@0\$hour_pulse
*528 my_design\.DEBUG_SIGS_GTKWAVE\.\/fpga_pins\.\/fpga\.P_clock_time\.\/\/\/\@0\$hour_tens_digit\[0\]
*529 my_design\.DEBUG_SIGS_GTKWAVE\.\/fpga_pins\.\/fpga\.P_clock_time\.\/\/\/\@0\$hour_tens_digit\[1\]
*530 my_design\.DEBUG_SIGS_GTKWAVE\.\/fpga_pins\.\/fpga\.P_clock_time\.\/\/\/\@0\$hour_tens_digit\[2\]
*531 my_design\.DEBUG_SIGS_GTKWAVE\.\/fpga_pins\.\/fpga\.P_clock_time\.\/\/\/\@0\$hour_tens_digit\[3\]
*532 my_design\.DEBUG_SIGS_GTKWAVE\.\/fpga_pins\.\/fpga\.P_clock_time\.\/\/\/\@0\$min_ones_digit\[0\]
*533 my_design\.DEBUG_SIGS_GTKWAVE\.\/fpga_pins\.\/fpga\.P_clock_time\.\/\/\/\@0\$min_ones_digit\[1\]
*534 my_design\.DEBUG_SIGS_GTKWAVE\.\/fpga_pins\.\/fpga\.P_clock_time\.\/\/\/\@0\$min_ones_digit\[2\]
*535 my_design\.DEBUG_SIGS_GTKWAVE\.\/fpga_pins\.\/fpga\.P_clock_time\.\/\/\/\@0\$min_ones_digit\[3\]
*536 my_design\.DEBUG_SIGS_GTKWAVE\.\/fpga_pins\.\/fpga\.P_clock_time\.\/\/\/\@0\$min_pulse
*537 my_design\.DEBUG_SIGS_GTKWAVE\.\/fpga_pins\.\/fpga\.P_clock_time\.\/\/\/\@0\$min_tens_digit\[0\]
*538 my_design\.DEBUG_SIGS_GTKWAVE\.\/fpga_pins\.\/fpga\.P_clock_time\.\/\/\/\@0\$min_tens_digit\[1\]
*539 my_design\.DEBUG_SIGS_GTKWAVE\.\/fpga_pins\.\/fpga\.P_clock_time\.\/\/\/\@0\$min_tens_digit\[2\]
*540 my_design\.DEBUG_SIGS_GTKWAVE\.\/fpga_pins\.\/fpga\.P_clock_time\.\/\/\/\@0\$min_tens_digit\[3\]
*541 my_design\.DEBUG_SIGS_GTKWAVE\.\/fpga_pins\.\/fpga\.P_clock_time\.\/\/\/\@0\$reset
*542 my_design\.DEBUG_SIGS_GTKWAVE\.\/fpga_pins\.\/fpga\.P_clock_time\.\/\/\/\@0\$sec_ones_digit\[0\]
*543 my_design\.DEBUG_SIGS_GTKWAVE\.\/fpga_pins\.\/fpga\.P_clock_time\.\/\/\/\@0\$sec_ones_digit\[1\]
*544 my_design\.DEBUG_SIGS_GTKWAVE\.\/fpga_pins\.\/fpga\.P_clock_time\.\/\/\/\@0\$sec_ones_digit\[2\]
*545 my_design\.DEBUG_SIGS_GTKWAVE\.\/fpga_pins\.\/fpga\.P_clock_time\.\/\/\/\@0\$sec_ones_digit\[3\]
*546 my_design\.DEBUG_SIGS_GTKWAVE\.\/fpga_pins\.\/fpga\.P_clock_time\.\/\/\/\@0\$sec_pulse
*547 my_design\.DEBUG_SIGS_GTKWAVE\.\/fpga_pins\.\/fpga\.P_clock_time\.\/\/\/\@0\$sec_tens_digit\[0\]
*548 my_design\.DEBUG_SIGS_GTKWAVE\.\/fpga_pins\.\/fpga\.P_clock_time\.\/\/\/\@0\$sec_tens_digit\[1\]
*549 my_design\.DEBUG_SIGS_GTKWAVE\.\/fpga_pins\.\/fpga\.P_clock_time\.\/\/\/\@0\$sec_tens_digit\[2\]
*550 my_design\.DEBUG_SIGS_GTKWAVE\.\/fpga_pins\.\/fpga\.P_clock_time\.\/\/\/\@0\$sec_tens_digit\[3\]
*551 my_design\.DEBUG_SIGS_GTKWAVE\.\/fpga_pins\.\/fpga\.P_clock_time\.\/\/\/\@0\$showbits\[0\]
*552 my_design\.DEBUG_SIGS_GTKWAVE\.\/fpga_pins\.\/fpga\.P_clock_time\.\/\/\/\@0\$showbits\[1\]
*553 my_design\.DEBUG_SIGS_GTKWAVE\.\/fpga_pins\.\/fpga\.P_clock_time\.\/\/\/\@0\$showbits\[2\]
*554 my_design\.DEBUG_SIGS_GTKWAVE\.\/fpga_pins\.\/fpga\.P_clock_time\.\/\/\/\@0\$showbits\[3\]
*555 my_design\.DEBUG_SIGS_GTKWAVE\.\/fpga_pins\.\/fpga\.P_clock_time\.\/\/\/\@0\$showbits\[4\]
*556 my_design\.DEBUG_SIGS_GTKWAVE\.\/fpga_pins\.\/fpga\.P_clock_time\.\/\/\/\@0\$showbits\[5\]
*557 my_design\.DEBUG_SIGS_GTKWAVE\.\/fpga_pins\.\/fpga\.P_clock_time\.\/\/\/\@0\$showbits\[6\]
*558 my_design\.DEBUG_SIGS_GTKWAVE\.\/switch\[0\]\.\/\@0\$viz_switch
*559 my_design\.DEBUG_SIGS_GTKWAVE\.\/switch\[1\]\.\/\@0\$viz_switch
*560 my_design\.DEBUG_SIGS_GTKWAVE\.\/switch\[2\]\.\/\@0\$viz_switch
*561 my_design\.DEBUG_SIGS_GTKWAVE\.\/switch\[3\]\.\/\@0\$viz_switch
*562 my_design\.DEBUG_SIGS_GTKWAVE\.\/switch\[4\]\.\/\@0\$viz_switch
*563 my_design\.DEBUG_SIGS_GTKWAVE\.\/switch\[5\]\.\/\@0\$viz_switch
*564 my_design\.DEBUG_SIGS_GTKWAVE\.\/switch\[6\]\.\/\@0\$viz_switch
*565 my_design\.DEBUG_SIGS_GTKWAVE\.\/switch\[7\]\.\/\@0\$viz_switch
*566 my_design\.FpgaPins_Fpga_CLOCK_TIME_cycounter_a1\[0\]
*567 my_design\.FpgaPins_Fpga_CLOCK_TIME_cycounter_a1\[10\]
*568 my_design\.FpgaPins_Fpga_CLOCK_TIME_cycounter_a1\[11\]
*569 my_design\.FpgaPins_Fpga_CLOCK_TIME_cycounter_a1\[12\]
*570 my_design\.FpgaPins_Fpga_CLOCK_TIME_cycounter_a1\[13\]
*571 my_design\.FpgaPins_Fpga_CLOCK_TIME_cycounter_a1\[14\]
*572 my_design\.FpgaPins_Fpga_CLOCK_TIME_cycounter_a1\[15\]
*573 my_design\.FpgaPins_Fpga_CLOCK_TIME_cycounter_a1\[16\]
*574 my_design\.FpgaPins_Fpga_CLOCK_TIME_cycounter_a1\[17\]
*575 my_design\.FpgaPins_Fpga_CLOCK_TIME_cycounter_a1\[18\]
*576 my_design\.FpgaPins_Fpga_CLOCK_TIME_cycounter_a1\[19\]
*577 my_design\.FpgaPins_Fpga_CLOCK_TIME_cycounter_a1\[1\]
*578 my_design\.FpgaPins_Fpga_CLOCK_TIME_cycounter_a1\[20\]
*579 my_design\.FpgaPins_Fpga_CLOCK_TIME_cycounter_a1\[21\]
*580 my_design\.FpgaPins_Fpga_CLOCK_TIME_cycounter_a1\[22\]
*581 my_design\.FpgaPins_Fpga_CLOCK_TIME_cycounter_a1\[23\]
*582 my_design\.FpgaPins_Fpga_CLOCK_TIME_cycounter_a1\[24\]
*583 my_design\.FpgaPins_Fpga_CLOCK_TIME_cycounter_a1\[2\]
*584 my_design\.FpgaPins_Fpga_CLOCK_TIME_cycounter_a1\[3\]
*585 my_design\.FpgaPins_Fpga_CLOCK_TIME_cycounter_a1\[4\]
*586 my_design\.FpgaPins_Fpga_CLOCK_TIME_cycounter_a1\[5\]
*587 my_design\.FpgaPins_Fpga_CLOCK_TIME_cycounter_a1\[6\]
*588 my_design\.FpgaPins_Fpga_CLOCK_TIME_cycounter_a1\[7\]
*589 my_design\.FpgaPins_Fpga_CLOCK_TIME_cycounter_a1\[8\]
*590 my_design\.FpgaPins_Fpga_CLOCK_TIME_cycounter_a1\[9\]
*591 my_design\.FpgaPins_Fpga_CLOCK_TIME_hour_ones_digit_a1\[0\]
*592 my_design\.FpgaPins_Fpga_CLOCK_TIME_hour_ones_digit_a1\[1\]
*593 my_design\.FpgaPins_Fpga_CLOCK_TIME_hour_ones_digit_a1\[2\]
*594 my_design\.FpgaPins_Fpga_CLOCK_TIME_hour_ones_digit_a1\[3\]
*595 my_design\.FpgaPins_Fpga_CLOCK_TIME_hour_tens_digit_a1\[0\]
*596 my_design\.FpgaPins_Fpga_CLOCK_TIME_hour_tens_digit_a1\[1\]
*597 my_design\.FpgaPins_Fpga_CLOCK_TIME_hour_tens_digit_a1\[2\]
*598 my_design\.FpgaPins_Fpga_CLOCK_TIME_hour_tens_digit_a1\[3\]
*599 my_design\.FpgaPins_Fpga_CLOCK_TIME_min_ones_digit_a1\[0\]
*600 my_design\.FpgaPins_Fpga_CLOCK_TIME_min_ones_digit_a1\[1\]
*601 my_design\.FpgaPins_Fpga_CLOCK_TIME_min_ones_digit_a1\[2\]
*602 my_design\.FpgaPins_Fpga_CLOCK_TIME_min_ones_digit_a1\[3\]
*603 my_design\.FpgaPins_Fpga_CLOCK_TIME_min_tens_digit_a1\[0\]
*604 my_design\.FpgaPins_Fpga_CLOCK_TIME_min_tens_digit_a1\[1\]
*605 my_design\.FpgaPins_Fpga_CLOCK_TIME_min_tens_digit_a1\[2\]
*606 my_design\.FpgaPins_Fpga_CLOCK_TIME_min_tens_digit_a1\[3\]
*607 my_design\.FpgaPins_Fpga_CLOCK_TIME_sec_ones_digit_a1\[0\]
*608 my_design\.FpgaPins_Fpga_CLOCK_TIME_sec_ones_digit_a1\[1\]
*609 my_design\.FpgaPins_Fpga_CLOCK_TIME_sec_ones_digit_a1\[2\]
*610 my_design\.FpgaPins_Fpga_CLOCK_TIME_sec_ones_digit_a1\[3\]
*611 my_design\.FpgaPins_Fpga_CLOCK_TIME_sec_tens_digit_a1\[0\]
*612 my_design\.FpgaPins_Fpga_CLOCK_TIME_sec_tens_digit_a1\[1\]
*613 my_design\.FpgaPins_Fpga_CLOCK_TIME_sec_tens_digit_a1\[2\]
*614 my_design\.FpgaPins_Fpga_CLOCK_TIME_sec_tens_digit_a1\[3\]
*615 net1
*616 net10
*617 net11
*618 net12
*619 net13
*620 net14
*621 net2
*622 net3
*623 net31
*624 net32
*625 net33
*626 net34
*627 net35
*628 net36
*629 net37
*630 net38
*631 net39
*632 net4
*633 net40
*634 net41
*635 net42
*636 net43
*637 net44
*638 net45
*639 net46
*640 net47
*641 net48
*642 net49
*643 net5
*644 net50
*645 net51
*646 net52
*647 net53
*648 net54
*649 net55
*650 net56
*651 net57
*652 net58
*653 net59
*654 net6
*655 net60
*656 net61
*657 net62
*658 net63
*659 net64
*660 net65
*661 net66
*662 net67
*663 net68
*664 net69
*665 net7
*666 net70
*667 net71
*668 net72
*669 net73
*670 net74
*671 net75
*672 net76
*673 net77
*674 net78
*675 net79
*676 net8
*677 net80
*678 net81
*679 net82
*680 net83
*681 net84
*682 net85
*683 net86
*684 net87
*685 net88
*686 net89
*687 net9
*688 net90
*689 net91
*690 net92
*691 net93
*692 FILLER_0_0_109
*693 FILLER_0_0_113
*694 FILLER_0_0_125
*695 FILLER_0_0_137
*696 FILLER_0_0_141
*697 FILLER_0_0_15
*698 FILLER_0_0_153
*699 FILLER_0_0_165
*700 FILLER_0_0_169
*701 FILLER_0_0_181
*702 FILLER_0_0_193
*703 FILLER_0_0_197
*704 FILLER_0_0_209
*705 FILLER_0_0_221
*706 FILLER_0_0_225
*707 FILLER_0_0_237
*708 FILLER_0_0_249
*709 FILLER_0_0_253
*710 FILLER_0_0_265
*711 FILLER_0_0_27
*712 FILLER_0_0_277
*713 FILLER_0_0_281
*714 FILLER_0_0_29
*715 FILLER_0_0_293
*716 FILLER_0_0_3
*717 FILLER_0_0_305
*718 FILLER_0_0_309
*719 FILLER_0_0_321
*720 FILLER_0_0_333
*721 FILLER_0_0_41
*722 FILLER_0_0_53
*723 FILLER_0_0_57
*724 FILLER_0_0_69
*725 FILLER_0_0_81
*726 FILLER_0_0_85
*727 FILLER_0_0_97
*728 FILLER_0_10_105
*729 FILLER_0_10_124
*730 FILLER_0_10_136
*731 FILLER_0_10_141
*732 FILLER_0_10_15
*733 FILLER_0_10_153
*734 FILLER_0_10_165
*735 FILLER_0_10_177
*736 FILLER_0_10_189
*737 FILLER_0_10_195
*738 FILLER_0_10_197
*739 FILLER_0_10_233
*740 FILLER_0_10_269
*741 FILLER_0_10_27
*742 FILLER_0_10_281
*743 FILLER_0_10_29
*744 FILLER_0_10_293
*745 FILLER_0_10_3
*746 FILLER_0_10_305
*747 FILLER_0_10_309
*748 FILLER_0_10_321
*749 FILLER_0_10_333
*750 FILLER_0_10_41
*751 FILLER_0_10_53
*752 FILLER_0_10_65
*753 FILLER_0_10_77
*754 FILLER_0_10_83
*755 FILLER_0_10_85
*756 FILLER_0_10_97
*757 FILLER_0_11_101
*758 FILLER_0_11_135
*759 FILLER_0_11_147
*760 FILLER_0_11_15
*761 FILLER_0_11_159
*762 FILLER_0_11_167
*763 FILLER_0_11_169
*764 FILLER_0_11_181
*765 FILLER_0_11_193
*766 FILLER_0_11_205
*767 FILLER_0_11_217
*768 FILLER_0_11_239
*769 FILLER_0_11_252
*770 FILLER_0_11_268
*771 FILLER_0_11_27
*772 FILLER_0_11_281
*773 FILLER_0_11_293
*774 FILLER_0_11_3
*775 FILLER_0_11_305
*776 FILLER_0_11_317
*777 FILLER_0_11_329
*778 FILLER_0_11_39
*779 FILLER_0_11_51
*780 FILLER_0_11_55
*781 FILLER_0_11_57
*782 FILLER_0_11_69
*783 FILLER_0_11_81
*784 FILLER_0_11_93
*785 FILLER_0_12_115
*786 FILLER_0_12_119
*787 FILLER_0_12_136
*788 FILLER_0_12_141
*789 FILLER_0_12_15
*790 FILLER_0_12_161
*791 FILLER_0_12_173
*792 FILLER_0_12_197
*793 FILLER_0_12_208
*794 FILLER_0_12_216
*795 FILLER_0_12_225
*796 FILLER_0_12_237
*797 FILLER_0_12_249
*798 FILLER_0_12_256
*799 FILLER_0_12_268
*800 FILLER_0_12_27
*801 FILLER_0_12_285
*802 FILLER_0_12_29
*803 FILLER_0_12_297
*804 FILLER_0_12_3
*805 FILLER_0_12_305
*806 FILLER_0_12_309
*807 FILLER_0_12_321
*808 FILLER_0_12_333
*809 FILLER_0_12_41
*810 FILLER_0_12_53
*811 FILLER_0_12_65
*812 FILLER_0_12_77
*813 FILLER_0_12_83
*814 FILLER_0_12_85
*815 FILLER_0_12_93
*816 FILLER_0_13_111
*817 FILLER_0_13_134
*818 FILLER_0_13_15
*819 FILLER_0_13_165
*820 FILLER_0_13_194
*821 FILLER_0_13_222
*822 FILLER_0_13_234
*823 FILLER_0_13_242
*824 FILLER_0_13_27
*825 FILLER_0_13_298
*826 FILLER_0_13_3
*827 FILLER_0_13_310
*828 FILLER_0_13_322
*829 FILLER_0_13_334
*830 FILLER_0_13_39
*831 FILLER_0_13_51
*832 FILLER_0_13_55
*833 FILLER_0_13_57
*834 FILLER_0_13_69
*835 FILLER_0_13_81
*836 FILLER_0_13_99
*837 FILLER_0_14_119
*838 FILLER_0_14_126
*839 FILLER_0_14_138
*840 FILLER_0_14_15
*841 FILLER_0_14_166
*842 FILLER_0_14_176
*843 FILLER_0_14_191
*844 FILLER_0_14_195
*845 FILLER_0_14_197
*846 FILLER_0_14_249
*847 FILLER_0_14_253
*848 FILLER_0_14_257
*849 FILLER_0_14_265
*850 FILLER_0_14_27
*851 FILLER_0_14_278
*852 FILLER_0_14_29
*853 FILLER_0_14_290
*854 FILLER_0_14_3
*855 FILLER_0_14_302
*856 FILLER_0_14_309
*857 FILLER_0_14_321
*858 FILLER_0_14_333
*859 FILLER_0_14_41
*860 FILLER_0_14_53
*861 FILLER_0_14_65
*862 FILLER_0_14_77
*863 FILLER_0_14_83
*864 FILLER_0_14_85
*865 FILLER_0_14_91
*866 FILLER_0_15_101
*867 FILLER_0_15_132
*868 FILLER_0_15_144
*869 FILLER_0_15_15
*870 FILLER_0_15_160
*871 FILLER_0_15_167
*872 FILLER_0_15_174
*873 FILLER_0_15_179
*874 FILLER_0_15_191
*875 FILLER_0_15_201
*876 FILLER_0_15_213
*877 FILLER_0_15_221
*878 FILLER_0_15_232
*879 FILLER_0_15_244
*880 FILLER_0_15_250
*881 FILLER_0_15_254
*882 FILLER_0_15_262
*883 FILLER_0_15_27
*884 FILLER_0_15_284
*885 FILLER_0_15_296
*886 FILLER_0_15_3
*887 FILLER_0_15_308
*888 FILLER_0_15_320
*889 FILLER_0_15_332
*890 FILLER_0_15_39
*891 FILLER_0_15_51
*892 FILLER_0_15_55
*893 FILLER_0_15_57
*894 FILLER_0_15_69
*895 FILLER_0_15_81
*896 FILLER_0_16_129
*897 FILLER_0_16_133
*898 FILLER_0_16_15
*899 FILLER_0_16_166
*900 FILLER_0_16_178
*901 FILLER_0_16_182
*902 FILLER_0_16_190
*903 FILLER_0_16_204
*904 FILLER_0_16_215
*905 FILLER_0_16_236
*906 FILLER_0_16_248
*907 FILLER_0_16_253
*908 FILLER_0_16_27
*909 FILLER_0_16_29
*910 FILLER_0_16_297
*911 FILLER_0_16_3
*912 FILLER_0_16_305
*913 FILLER_0_16_325
*914 FILLER_0_16_333
*915 FILLER_0_16_41
*916 FILLER_0_16_53
*917 FILLER_0_16_65
*918 FILLER_0_16_77
*919 FILLER_0_16_83
*920 FILLER_0_16_85
*921 FILLER_0_17_104
*922 FILLER_0_17_110
*923 FILLER_0_17_121
*924 FILLER_0_17_133
*925 FILLER_0_17_137
*926 FILLER_0_17_15
*927 FILLER_0_17_165
*928 FILLER_0_17_169
*929 FILLER_0_17_175
*930 FILLER_0_17_183
*931 FILLER_0_17_187
*932 FILLER_0_17_204
*933 FILLER_0_17_216
*934 FILLER_0_17_236
*935 FILLER_0_17_248
*936 FILLER_0_17_252
*937 FILLER_0_17_27
*938 FILLER_0_17_278
*939 FILLER_0_17_289
*940 FILLER_0_17_3
*941 FILLER_0_17_321
*942 FILLER_0_17_332
*943 FILLER_0_17_39
*944 FILLER_0_17_51
*945 FILLER_0_17_55
*946 FILLER_0_17_57
*947 FILLER_0_17_69
*948 FILLER_0_17_81
*949 FILLER_0_17_93
*950 FILLER_0_17_99
*951 FILLER_0_18_119
*952 FILLER_0_18_131
*953 FILLER_0_18_135
*954 FILLER_0_18_139
*955 FILLER_0_18_141
*956 FILLER_0_18_15
*957 FILLER_0_18_162
*958 FILLER_0_18_174
*959 FILLER_0_18_186
*960 FILLER_0_18_194
*961 FILLER_0_18_206
*962 FILLER_0_18_214
*963 FILLER_0_18_223
*964 FILLER_0_18_242
*965 FILLER_0_18_250
*966 FILLER_0_18_253
*967 FILLER_0_18_257
*968 FILLER_0_18_265
*969 FILLER_0_18_27
*970 FILLER_0_18_277
*971 FILLER_0_18_289
*972 FILLER_0_18_29
*973 FILLER_0_18_297
*974 FILLER_0_18_3
*975 FILLER_0_18_332
*976 FILLER_0_18_35
*977 FILLER_0_18_61
*978 FILLER_0_18_80
*979 FILLER_0_18_85
*980 FILLER_0_18_97
*981 FILLER_0_19_102
*982 FILLER_0_19_110
*983 FILLER_0_19_113
*984 FILLER_0_19_125
*985 FILLER_0_19_130
*986 FILLER_0_19_15
*987 FILLER_0_19_157
*988 FILLER_0_19_161
*989 FILLER_0_19_167
*990 FILLER_0_19_169
*991 FILLER_0_19_173
*992 FILLER_0_19_178
*993 FILLER_0_19_201
*994 FILLER_0_19_246
*995 FILLER_0_19_252
*996 FILLER_0_19_266
*997 FILLER_0_19_27
*998 FILLER_0_19_278
*999 FILLER_0_19_281
*1000 FILLER_0_19_293
*1001 FILLER_0_19_3
*1002 FILLER_0_19_302
*1003 FILLER_0_19_333
*1004 FILLER_0_19_35
*1005 FILLER_0_19_85
*1006 FILLER_0_1_105
*1007 FILLER_0_1_111
*1008 FILLER_0_1_113
*1009 FILLER_0_1_125
*1010 FILLER_0_1_137
*1011 FILLER_0_1_149
*1012 FILLER_0_1_15
*1013 FILLER_0_1_161
*1014 FILLER_0_1_167
*1015 FILLER_0_1_169
*1016 FILLER_0_1_181
*1017 FILLER_0_1_193
*1018 FILLER_0_1_205
*1019 FILLER_0_1_217
*1020 FILLER_0_1_223
*1021 FILLER_0_1_225
*1022 FILLER_0_1_237
*1023 FILLER_0_1_249
*1024 FILLER_0_1_261
*1025 FILLER_0_1_27
*1026 FILLER_0_1_273
*1027 FILLER_0_1_279
*1028 FILLER_0_1_281
*1029 FILLER_0_1_293
*1030 FILLER_0_1_3
*1031 FILLER_0_1_305
*1032 FILLER_0_1_317
*1033 FILLER_0_1_329
*1034 FILLER_0_1_39
*1035 FILLER_0_1_51
*1036 FILLER_0_1_55
*1037 FILLER_0_1_57
*1038 FILLER_0_1_69
*1039 FILLER_0_1_81
*1040 FILLER_0_1_93
*1041 FILLER_0_20_111
*1042 FILLER_0_20_129
*1043 FILLER_0_20_133
*1044 FILLER_0_20_139
*1045 FILLER_0_20_147
*1046 FILLER_0_20_15
*1047 FILLER_0_20_155
*1048 FILLER_0_20_181
*1049 FILLER_0_20_193
*1050 FILLER_0_20_207
*1051 FILLER_0_20_231
*1052 FILLER_0_20_253
*1053 FILLER_0_20_262
*1054 FILLER_0_20_27
*1055 FILLER_0_20_285
*1056 FILLER_0_20_29
*1057 FILLER_0_20_291
*1058 FILLER_0_20_295
*1059 FILLER_0_20_3
*1060 FILLER_0_20_333
*1061 FILLER_0_20_41
*1062 FILLER_0_20_68
*1063 FILLER_0_20_78
*1064 FILLER_0_20_85
*1065 FILLER_0_21_108
*1066 FILLER_0_21_118
*1067 FILLER_0_21_130
*1068 FILLER_0_21_138
*1069 FILLER_0_21_143
*1070 FILLER_0_21_15
*1071 FILLER_0_21_151
*1072 FILLER_0_21_169
*1073 FILLER_0_21_177
*1074 FILLER_0_21_184
*1075 FILLER_0_21_200
*1076 FILLER_0_21_212
*1077 FILLER_0_21_218
*1078 FILLER_0_21_252
*1079 FILLER_0_21_27
*1080 FILLER_0_21_3
*1081 FILLER_0_21_322
*1082 FILLER_0_21_334
*1083 FILLER_0_21_39
*1084 FILLER_0_21_51
*1085 FILLER_0_21_55
*1086 FILLER_0_21_57
*1087 FILLER_0_21_64
*1088 FILLER_0_21_76
*1089 FILLER_0_21_88
*1090 FILLER_0_21_99
*1091 FILLER_0_22_116
*1092 FILLER_0_22_128
*1093 FILLER_0_22_132
*1094 FILLER_0_22_146
*1095 FILLER_0_22_15
*1096 FILLER_0_22_158
*1097 FILLER_0_22_171
*1098 FILLER_0_22_183
*1099 FILLER_0_22_195
*1100 FILLER_0_22_197
*1101 FILLER_0_22_209
*1102 FILLER_0_22_247
*1103 FILLER_0_22_251
*1104 FILLER_0_22_253
*1105 FILLER_0_22_261
*1106 FILLER_0_22_27
*1107 FILLER_0_22_29
*1108 FILLER_0_22_3
*1109 FILLER_0_22_304
*1110 FILLER_0_22_309
*1111 FILLER_0_22_326
*1112 FILLER_0_22_334
*1113 FILLER_0_22_37
*1114 FILLER_0_22_49
*1115 FILLER_0_22_66
*1116 FILLER_0_22_78
*1117 FILLER_0_22_85
*1118 FILLER_0_23_107
*1119 FILLER_0_23_111
*1120 FILLER_0_23_113
*1121 FILLER_0_23_117
*1122 FILLER_0_23_137
*1123 FILLER_0_23_15
*1124 FILLER_0_23_162
*1125 FILLER_0_23_172
*1126 FILLER_0_23_196
*1127 FILLER_0_23_208
*1128 FILLER_0_23_220
*1129 FILLER_0_23_225
*1130 FILLER_0_23_247