*SPEF "ieee 1481-1999"
*DESIGN "tt_um_otp_encryptor"
*DATE "16:58:17 Thursday April 18, 2024"
*VENDOR "The OpenROAD Project"
*PROGRAM "OpenROAD"
*VERSION "0889970d1790a2617e69f253221b8bd7626e51dc"
*DESIGN_FLOW "NAME_SCOPE LOCAL" "PIN_CAP NONE"
*DIVIDER /
*DELIMITER :
*BUS_DELIMITER []
*T_UNIT 1 NS
*C_UNIT 1 PF
*R_UNIT 1 OHM
*L_UNIT 1 HENRY

*NAME_MAP
*3 clk
*4 ena
*5 rst_n
*6 ui_in[0]
*7 ui_in[1]
*8 ui_in[2]
*9 ui_in[3]
*10 ui_in[4]
*11 ui_in[5]
*12 ui_in[6]
*13 ui_in[7]
*14 uio_in[0]
*15 uio_in[1]
*16 uio_in[2]
*17 uio_in[3]
*18 uio_in[4]
*19 uio_in[5]
*20 uio_in[6]
*21 uio_in[7]
*22 net31
*23 net32
*24 net33
*25 net34
*26 net40
*27 net41
*28 net42
*29 net43
*30 net35
*31 net36
*32 net37
*33 net38
*34 uio_out[4]
*35 uio_out[5]
*36 uio_out[6]
*37 net39
*38 uo_out[0]
*39 uo_out[1]
*40 uo_out[2]
*41 uo_out[3]
*42 uo_out[4]
*43 uo_out[5]
*44 uo_out[6]
*45 uo_out[7]
*46 _000_
*47 _001_
*48 _002_
*49 _003_
*50 _004_
*51 _005_
*52 _006_
*53 _007_
*54 _008_
*55 _009_
*56 _010_
*57 _011_
*58 _012_
*59 _013_
*60 _014_
*61 _015_
*62 _016_
*63 _017_
*64 _018_
*65 _019_
*66 _020_
*67 _021_
*68 _022_
*69 _023_
*70 _024_
*71 _025_
*72 _026_
*73 _027_
*74 _028_
*75 _029_
*76 _030_
*77 _031_
*78 _032_
*79 _033_
*80 _034_
*81 _035_
*82 _036_
*83 _037_
*84 _038_
*85 _039_
*86 _040_
*87 _041_
*88 _042_
*89 _043_
*90 _044_
*91 _045_
*92 _046_
*93 _047_
*94 _048_
*95 _049_
*96 _050_
*97 _051_
*98 _052_
*99 _053_
*100 _054_
*101 _055_
*102 _056_
*103 _057_
*104 _058_
*105 _059_
*106 _060_
*107 _061_
*108 _062_
*109 _063_
*110 _064_
*111 _065_
*112 _066_
*113 _067_
*114 _068_
*115 _069_
*116 _070_
*117 _071_
*118 _072_
*119 _073_
*120 _074_
*121 _075_
*122 _076_
*123 _077_
*124 _078_
*125 _079_
*126 _080_
*127 _081_
*128 _082_
*129 _083_
*130 _084_
*131 _085_
*132 _086_
*133 _087_
*134 _088_
*135 _089_
*136 _090_
*137 _091_
*138 _092_
*139 _093_
*140 _094_
*141 _095_
*142 _096_
*143 _097_
*144 _098_
*145 _099_
*146 _100_
*147 _101_
*148 _102_
*149 _103_
*150 _104_
*151 _105_
*152 _106_
*153 _107_
*154 _108_
*155 _109_
*156 _110_
*157 _111_
*158 _112_
*159 _113_
*160 _114_
*161 _115_
*162 _116_
*163 _117_
*164 _118_
*165 _119_
*166 _120_
*167 _121_
*168 _122_
*169 _123_
*170 _124_
*171 _125_
*172 _126_
*173 _127_
*174 _128_
*175 _129_
*176 _130_
*177 _131_
*178 _132_
*179 _133_
*180 _134_
*181 _135_
*182 _136_
*183 _137_
*184 _138_
*185 _139_
*186 _140_
*187 _141_
*188 _142_
*189 _143_
*190 _144_
*191 _145_
*192 _146_
*193 _147_
*194 _148_
*195 _149_
*196 _150_
*197 _151_
*198 _152_
*199 _153_
*200 _154_
*201 _155_
*202 _156_
*203 _157_
*204 _158_
*205 _159_
*206 _160_
*207 _161_
*208 _162_
*209 _163_
*210 _164_
*211 _165_
*212 _166_
*213 _167_
*214 _168_
*215 _169_
*216 _170_
*217 _171_
*218 _172_
*219 _173_
*220 _174_
*221 _175_
*222 _176_
*223 _177_
*224 _178_
*225 _179_
*226 _180_
*227 _181_
*228 _182_
*229 _183_
*230 _184_
*231 _185_
*232 _186_
*233 _187_
*234 _188_
*235 _189_
*236 _190_
*237 _191_
*238 _192_
*239 _193_
*240 _194_
*241 _195_
*242 _196_
*243 _197_
*244 _198_
*245 _199_
*246 _200_
*247 _201_
*248 _202_
*249 _203_
*250 _204_
*251 _205_
*252 _206_
*253 _207_
*254 _208_
*255 _209_
*256 _210_
*257 _211_
*258 _212_
*259 _213_
*260 _214_
*261 _215_
*262 _216_
*263 _217_
*264 _218_
*265 _219_
*266 _220_
*267 _221_
*268 _222_
*269 _223_
*270 _224_
*271 _225_
*272 _226_
*273 _227_
*274 _228_
*275 _229_
*276 _230_
*277 _231_
*278 _232_
*279 _233_
*280 _234_
*281 _235_
*282 _236_
*283 _237_
*284 _238_
*285 _239_
*286 _240_
*287 _241_
*288 _242_
*289 _243_
*290 _244_
*291 _245_
*292 _246_
*293 _247_
*294 _248_
*295 _249_
*296 _250_
*297 _251_
*298 _252_
*299 _253_
*300 _254_
*301 _255_
*302 _256_
*303 _257_
*304 _258_
*305 _259_
*306 _260_
*307 _261_
*308 _262_
*309 _263_
*310 _264_
*311 _265_
*312 _266_
*313 _267_
*314 _268_
*315 _269_
*316 _270_
*317 _271_
*318 _272_
*319 _273_
*320 _274_
*321 _275_
*322 _276_
*323 _277_
*324 _278_
*325 _279_
*326 clknet_0_clk
*327 clknet_3_0__leaf_clk
*328 clknet_3_1__leaf_clk
*329 clknet_3_2__leaf_clk
*330 clknet_3_3__leaf_clk
*331 clknet_3_4__leaf_clk
*332 clknet_3_5__leaf_clk
*333 clknet_3_6__leaf_clk
*334 clknet_3_7__leaf_clk
*335 count\[0\]
*336 count\[1\]
*337 count\[2\]
*338 mem\[0\]\[0\]
*339 mem\[0\]\[1\]
*340 mem\[0\]\[2\]
*341 mem\[0\]\[3\]
*342 mem\[0\]\[4\]
*343 mem\[0\]\[5\]
*344 mem\[0\]\[6\]
*345 mem\[0\]\[7\]
*346 mem\[1\]\[0\]
*347 mem\[1\]\[1\]
*348 mem\[1\]\[2\]
*349 mem\[1\]\[3\]
*350 mem\[1\]\[4\]
*351 mem\[1\]\[5\]
*352 mem\[1\]\[6\]
*353 mem\[1\]\[7\]
*354 mem\[2\]\[0\]
*355 mem\[2\]\[1\]
*356 mem\[2\]\[2\]
*357 mem\[2\]\[3\]
*358 mem\[2\]\[4\]
*359 mem\[2\]\[5\]
*360 mem\[2\]\[6\]
*361 mem\[2\]\[7\]
*362 mem\[3\]\[0\]
*363 mem\[3\]\[1\]
*364 mem\[3\]\[2\]
*365 mem\[3\]\[3\]
*366 mem\[3\]\[4\]
*367 mem\[3\]\[5\]
*368 mem\[3\]\[6\]
*369 mem\[3\]\[7\]
*370 mem\[4\]\[0\]
*371 mem\[4\]\[1\]
*372 mem\[4\]\[2\]
*373 mem\[4\]\[3\]
*374 mem\[4\]\[4\]
*375 mem\[4\]\[5\]
*376 mem\[4\]\[6\]
*377 mem\[4\]\[7\]
*378 mem\[5\]\[0\]
*379 mem\[5\]\[1\]
*380 mem\[5\]\[2\]
*381 mem\[5\]\[3\]
*382 mem\[5\]\[4\]
*383 mem\[5\]\[5\]
*384 mem\[5\]\[6\]
*385 mem\[5\]\[7\]
*386 mem\[6\]\[0\]
*387 mem\[6\]\[1\]
*388 mem\[6\]\[2\]
*389 mem\[6\]\[3\]
*390 mem\[6\]\[4\]
*391 mem\[6\]\[5\]
*392 mem\[6\]\[6\]
*393 mem\[6\]\[7\]
*394 mem\[7\]\[0\]
*395 mem\[7\]\[1\]
*396 mem\[7\]\[2\]
*397 mem\[7\]\[3\]
*398 mem\[7\]\[4\]
*399 mem\[7\]\[5\]
*400 mem\[7\]\[6\]
*401 mem\[7\]\[7\]
*402 net1
*403 net10
*404 net100
*405 net101
*406 net102
*407 net103
*408 net104
*409 net105
*410 net106
*411 net107
*412 net108
*413 net109
*414 net11
*415 net110
*416 net111
*417 net112
*418 net113
*419 net114
*420 net115
*421 net116
*422 net117
*423 net118
*424 net119
*425 net12
*426 net120
*427 net121
*428 net122
*429 net123
*430 net124
*431 net125
*432 net126
*433 net127
*434 net128
*435 net129
*436 net13
*437 net130
*438 net131
*439 net132
*440 net133
*441 net134
*442 net135
*443 net136
*444 net137
*445 net14
*446 net15
*447 net16
*448 net17
*449 net18
*450 net19
*451 net2
*452 net20
*453 net21
*454 net22
*455 net23
*456 net24
*457 net25
*458 net26
*459 net27
*460 net28
*461 net29
*462 net3
*463 net30
*464 net4
*465 net44
*466 net45
*467 net46
*468 net47
*469 net48
*470 net49
*471 net5
*472 net50
*473 net51
*474 net52
*475 net53
*476 net54
*477 net55
*478 net56
*479 net57
*480 net58
*481 net59
*482 net6
*483 net60
*484 net61
*485 net62
*486 net63
*487 net64
*488 net65
*489 net66
*490 net67
*491 net68
*492 net69
*493 net7
*494 net70
*495 net71
*496 net72
*497 net73
*498 net74
*499 net75
*500 net76
*501 net77
*502 net78
*503 net79
*504 net8
*505 net80
*506 net81
*507 net82
*508 net83
*509 net84
*510 net85
*511 net86
*512 net87
*513 net88
*514 net89
*515 net9
*516 net90
*517 net91
*518 net92
*519 net93
*520 net94
*521 net95
*522 net96
*523 net97
*524 net98
*525 net99
*526 rng\.D32\[0\]
*527 rng\.D32\[10\]
*528 rng\.D32\[11\]
*529 rng\.D32\[12\]
*530 rng\.D32\[13\]
*531 rng\.D32\[14\]
*532 rng\.D32\[15\]
*533 rng\.D32\[16\]
*534 rng\.D32\[17\]
*535 rng\.D32\[18\]
*536 rng\.D32\[19\]
*537 rng\.D32\[1\]
*538 rng\.D32\[20\]
*539 rng\.D32\[21\]
*540 rng\.D32\[22\]
*541 rng\.D32\[23\]
*542 rng\.D32\[24\]
*543 rng\.D32\[25\]
*544 rng\.D32\[26\]
*545 rng\.D32\[27\]
*546 rng\.D32\[28\]
*547 rng\.D32\[29\]
*548 rng\.D32\[2\]
*549 rng\.D32\[30\]
*550 rng\.D32\[31\]
*551 rng\.D32\[3\]
*552 rng\.D32\[4\]
*553 rng\.D32\[5\]
*554 rng\.D32\[6\]
*555 rng\.D32\[7\]
*556 rng\.D32\[8\]
*557 rng\.D32\[9\]
*558 FILLER_0_0_109
*559 FILLER_0_0_113
*560 FILLER_0_0_125
*561 FILLER_0_0_137
*562 FILLER_0_0_141
*563 FILLER_0_0_15
*564 FILLER_0_0_153
*565 FILLER_0_0_165
*566 FILLER_0_0_169
*567 FILLER_0_0_181
*568 FILLER_0_0_193
*569 FILLER_0_0_197
*570 FILLER_0_0_209
*571 FILLER_0_0_221
*572 FILLER_0_0_225
*573 FILLER_0_0_237
*574 FILLER_0_0_249
*575 FILLER_0_0_253
*576 FILLER_0_0_265
*577 FILLER_0_0_27
*578 FILLER_0_0_277
*579 FILLER_0_0_281
*580 FILLER_0_0_29
*581 FILLER_0_0_293
*582 FILLER_0_0_3
*583 FILLER_0_0_305
*584 FILLER_0_0_309
*585 FILLER_0_0_321
*586 FILLER_0_0_333
*587 FILLER_0_0_41
*588 FILLER_0_0_53
*589 FILLER_0_0_57
*590 FILLER_0_0_69
*591 FILLER_0_0_81
*592 FILLER_0_0_85
*593 FILLER_0_0_97
*594 FILLER_0_10_109
*595 FILLER_0_10_121
*596 FILLER_0_10_133
*597 FILLER_0_10_139
*598 FILLER_0_10_141
*599 FILLER_0_10_15
*600 FILLER_0_10_153
*601 FILLER_0_10_165
*602 FILLER_0_10_177
*603 FILLER_0_10_189
*604 FILLER_0_10_195
*605 FILLER_0_10_197
*606 FILLER_0_10_209
*607 FILLER_0_10_221
*608 FILLER_0_10_245
*609 FILLER_0_10_251
*610 FILLER_0_10_253
*611 FILLER_0_10_265
*612 FILLER_0_10_27
*613 FILLER_0_10_289
*614 FILLER_0_10_29
*615 FILLER_0_10_3
*616 FILLER_0_10_301
*617 FILLER_0_10_307
*618 FILLER_0_10_309
*619 FILLER_0_10_321
*620 FILLER_0_10_333
*621 FILLER_0_10_41
*622 FILLER_0_10_53
*623 FILLER_0_10_65
*624 FILLER_0_10_77
*625 FILLER_0_10_83
*626 FILLER_0_10_85
*627 FILLER_0_10_97
*628 FILLER_0_11_102
*629 FILLER_0_11_110
*630 FILLER_0_11_113
*631 FILLER_0_11_125
*632 FILLER_0_11_137
*633 FILLER_0_11_145
*634 FILLER_0_11_15
*635 FILLER_0_11_169
*636 FILLER_0_11_178
*637 FILLER_0_11_215
*638 FILLER_0_11_223
*639 FILLER_0_11_225
*640 FILLER_0_11_237
*641 FILLER_0_11_269
*642 FILLER_0_11_27
*643 FILLER_0_11_277
*644 FILLER_0_11_297
*645 FILLER_0_11_3
*646 FILLER_0_11_309
*647 FILLER_0_11_321
*648 FILLER_0_11_333
*649 FILLER_0_11_39
*650 FILLER_0_11_51
*651 FILLER_0_11_55
*652 FILLER_0_11_57
*653 FILLER_0_11_69
*654 FILLER_0_11_90
*655 FILLER_0_12_104
*656 FILLER_0_12_116
*657 FILLER_0_12_128
*658 FILLER_0_12_15
*659 FILLER_0_12_162
*660 FILLER_0_12_168
*661 FILLER_0_12_190
*662 FILLER_0_12_197
*663 FILLER_0_12_209
*664 FILLER_0_12_213
*665 FILLER_0_12_235
*666 FILLER_0_12_247
*667 FILLER_0_12_251
*668 FILLER_0_12_27
*669 FILLER_0_12_29
*670 FILLER_0_12_295
*671 FILLER_0_12_3
*672 FILLER_0_12_307
*673 FILLER_0_12_309
*674 FILLER_0_12_321
*675 FILLER_0_12_333
*676 FILLER_0_12_41
*677 FILLER_0_12_53
*678 FILLER_0_12_65
*679 FILLER_0_12_73
*680 FILLER_0_12_82
*681 FILLER_0_12_92
*682 FILLER_0_13_102
*683 FILLER_0_13_110
*684 FILLER_0_13_113
*685 FILLER_0_13_137
*686 FILLER_0_13_149
*687 FILLER_0_13_15
*688 FILLER_0_13_155
*689 FILLER_0_13_164
*690 FILLER_0_13_197
*691 FILLER_0_13_225
*692 FILLER_0_13_255
*693 FILLER_0_13_267
*694 FILLER_0_13_27
*695 FILLER_0_13_279
*696 FILLER_0_13_281
*697 FILLER_0_13_293
*698 FILLER_0_13_3
*699 FILLER_0_13_305
*700 FILLER_0_13_317
*701 FILLER_0_13_329
*702 FILLER_0_13_39
*703 FILLER_0_13_51
*704 FILLER_0_13_55
*705 FILLER_0_13_57
*706 FILLER_0_13_69
*707 FILLER_0_13_73
*708 FILLER_0_14_111
*709 FILLER_0_14_123
*710 FILLER_0_14_135
*711 FILLER_0_14_139
*712 FILLER_0_14_141
*713 FILLER_0_14_15
*714 FILLER_0_14_169
*715 FILLER_0_14_173
*716 FILLER_0_14_182
*717 FILLER_0_14_188
*718 FILLER_0_14_197
*719 FILLER_0_14_247
*720 FILLER_0_14_251
*721 FILLER_0_14_253
*722 FILLER_0_14_263
*723 FILLER_0_14_27
*724 FILLER_0_14_29
*725 FILLER_0_14_3
*726 FILLER_0_14_307
*727 FILLER_0_14_329
*728 FILLER_0_14_41
*729 FILLER_0_14_53
*730 FILLER_0_14_65
*731 FILLER_0_14_77
*732 FILLER_0_14_83
*733 FILLER_0_14_85
*734 FILLER_0_14_99
*735 FILLER_0_15_107
*736 FILLER_0_15_111
*737 FILLER_0_15_113
*738 FILLER_0_15_121
*739 FILLER_0_15_144
*740 FILLER_0_15_15
*741 FILLER_0_15_169
*742 FILLER_0_15_175
*743 FILLER_0_15_197
*744 FILLER_0_15_222
*745 FILLER_0_15_225
*746 FILLER_0_15_231
*747 FILLER_0_15_27
*748 FILLER_0_15_272
*749 FILLER_0_15_281
*750 FILLER_0_15_3
*751 FILLER_0_15_305
*752 FILLER_0_15_333
*753 FILLER_0_15_39
*754 FILLER_0_15_51
*755 FILLER_0_15_55
*756 FILLER_0_15_57
*757 FILLER_0_15_69
*758 FILLER_0_15_81
*759 FILLER_0_16_135
*760 FILLER_0_16_139
*761 FILLER_0_16_141
*762 FILLER_0_16_147
*763 FILLER_0_16_15
*764 FILLER_0_16_156
*765 FILLER_0_16_177
*766 FILLER_0_16_189
*767 FILLER_0_16_195
*768 FILLER_0_16_197
*769 FILLER_0_16_210
*770 FILLER_0_16_214
*771 FILLER_0_16_235
*772 FILLER_0_16_265
*773 FILLER_0_16_27
*774 FILLER_0_16_29
*775 FILLER_0_16_3
*776 FILLER_0_16_317
*777 FILLER_0_16_325
*778 FILLER_0_16_41
*779 FILLER_0_16_70
*780 FILLER_0_16_82
*781 FILLER_0_16_85
*782 FILLER_0_16_93
*783 FILLER_0_17_113
*784 FILLER_0_17_15
*785 FILLER_0_17_150
*786 FILLER_0_17_157
*787 FILLER_0_17_167
*788 FILLER_0_17_185
*789 FILLER_0_17_193
*790 FILLER_0_17_222
*791 FILLER_0_17_225
*792 FILLER_0_17_233
*793 FILLER_0_17_238
*794 FILLER_0_17_27
*795 FILLER_0_17_279
*796 FILLER_0_17_281
*797 FILLER_0_17_297
*798 FILLER_0_17_3
*799 FILLER_0_17_303
*800 FILLER_0_17_310
*801 FILLER_0_17_322
*802 FILLER_0_17_334
*803 FILLER_0_17_39
*804 FILLER_0_17_51
*805 FILLER_0_17_55
*806 FILLER_0_17_57
*807 FILLER_0_17_83
*808 FILLER_0_17_95
*809 FILLER_0_17_99
*810 FILLER_0_18_102
*811 FILLER_0_18_133
*812 FILLER_0_18_139
*813 FILLER_0_18_149
*814 FILLER_0_18_15
*815 FILLER_0_18_161
*816 FILLER_0_18_176
*817 FILLER_0_18_188
*818 FILLER_0_18_192
*819 FILLER_0_18_217
*820 FILLER_0_18_229
*821 FILLER_0_18_237
*822 FILLER_0_18_250
*823 FILLER_0_18_27
*824 FILLER_0_18_270
*825 FILLER_0_18_279
*826 FILLER_0_18_291
*827 FILLER_0_18_3
*828 FILLER_0_18_303
*829 FILLER_0_18_307
*830 FILLER_0_18_329
*831 FILLER_0_18_58
*832 FILLER_0_18_94
*833 FILLER_0_19_108
*834 FILLER_0_19_113
*835 FILLER_0_19_117
*836 FILLER_0_19_138
*837 FILLER_0_19_15
*838 FILLER_0_19_150
*839 FILLER_0_19_161
*840 FILLER_0_19_167
*841 FILLER_0_19_169
*842 FILLER_0_19_181
*843 FILLER_0_19_185
*844 FILLER_0_19_223
*845 FILLER_0_19_225
*846 FILLER_0_19_23
*847 FILLER_0_19_237
*848 FILLER_0_19_249
*849 FILLER_0_19_257
*850 FILLER_0_19_266
*851 FILLER_0_19_270
*852 FILLER_0_19_3
*853 FILLER_0_19_324
*854 FILLER_0_19_332
*855 FILLER_0_1_105
*856 FILLER_0_1_111
*857 FILLER_0_1_113
*858 FILLER_0_1_125
*859 FILLER_0_1_137
*860 FILLER_0_1_149
*861 FILLER_0_1_15
*862 FILLER_0_1_161
*863 FILLER_0_1_167
*864 FILLER_0_1_169
*865 FILLER_0_1_181
*866 FILLER_0_1_193
*867 FILLER_0_1_205
*868 FILLER_0_1_217
*869 FILLER_0_1_223
*870 FILLER_0_1_225
*871 FILLER_0_1_237
*872 FILLER_0_1_249
*873 FILLER_0_1_261
*874 FILLER_0_1_27
*875 FILLER_0_1_273
*876 FILLER_0_1_279
*877 FILLER_0_1_281
*878 FILLER_0_1_293
*879 FILLER_0_1_3
*880 FILLER_0_1_305
*881 FILLER_0_1_317
*882 FILLER_0_1_329
*883 FILLER_0_1_39
*884 FILLER_0_1_51
*885 FILLER_0_1_55
*886 FILLER_0_1_57
*887 FILLER_0_1_69
*888 FILLER_0_1_81
*889 FILLER_0_1_93
*890 FILLER_0_20_141
*891 FILLER_0_20_15
*892 FILLER_0_20_190
*893 FILLER_0_20_194
*894 FILLER_0_20_214
*895 FILLER_0_20_226
*896 FILLER_0_20_248
*897 FILLER_0_20_253
*898 FILLER_0_20_263
*899 FILLER_0_20_27
*900 FILLER_0_20_273
*901 FILLER_0_20_277
*902 FILLER_0_20_286
*903 FILLER_0_20_298
*904 FILLER_0_20_3
*905 FILLER_0_20_306
*906 FILLER_0_20_334
*907 FILLER_0_20_52
*908 FILLER_0_20_64
*909 FILLER_0_20_73
*910 FILLER_0_20_85
*911 FILLER_0_21_105
*912 FILLER_0_21_11
*913 FILLER_0_21_111
*914 FILLER_0_21_113
*915 FILLER_0_21_141
*916 FILLER_0_21_153
*917 FILLER_0_21_159
*918 FILLER_0_21_178
*919 FILLER_0_21_190
*920 FILLER_0_21_198
*921 FILLER_0_21_217
*922 FILLER_0_21_223
*923 FILLER_0_21_225
*924 FILLER_0_21_255
*925 FILLER_0_21_274
*926 FILLER_0_21_281
*927 FILLER_0_21_293
*928 FILLER_0_21_3
*929 FILLER_0_21_305
*930 FILLER_0_21_322
*931 FILLER_0_21_334
*932 FILLER_0_21_34
*933 FILLER_0_21_46
*934 FILLER_0_21_54
*935 FILLER_0_21_57
*936 FILLER_0_21_69
*937 FILLER_0_21_93
*938 FILLER_0_22_109
*939 FILLER_0_22_135
*940 FILLER_0_22_139
*941 FILLER_0_22_141
*942 FILLER_0_22_15
*943 FILLER_0_22_152
*944 FILLER_0_22_164
*945 FILLER_0_22_174
*946 FILLER_0_22_186
*947 FILLER_0_22_194
*948 FILLER_0_22_222
*949 FILLER_0_22_249
*950 FILLER_0_22_260
*951 FILLER_0_22_27
*952 FILLER_0_22_270
*953 FILLER_0_22_282
*954 FILLER_0_22_29
*955 FILLER_0_22_294
*956 FILLER_0_22_298
*957 FILLER_0_22_3
*958 FILLER_0_22_329
*959 FILLER_0_22_41
*960 FILLER_0_22_53
*961 FILLER_0_22_74
*962 FILLER_0_22_97
*963 FILLER_0_23_105
*964 FILLER_0_23_111
*965 FILLER_0_23_113
*966 FILLER_0_23_129
*967 FILLER_0_23_141
*968 FILLER_0_23_15
*969 FILLER_0_23_164
*970 FILLER_0_23_181
*971 FILLER_0_23_204
*972 FILLER_0_23_216
*973 FILLER_0_23_225
*974 FILLER_0_23_237
*975 FILLER_0_23_255
*976 FILLER_0_23_274
*977 FILLER_0_23_279
*978 FILLER_0_23_289
*979 FILLER_0_23_3
*980 FILLER_0_23_301
*981 FILLER_0_23_332
*982 FILLER_0_23_39
*983 FILLER_0_23_51
*984 FILLER_0_23_55
*985 FILLER_0_23_57
*986 FILLER_0_23_63
*987 FILLER_0_24_107
*988 FILLER_0_24_115
*989 FILLER_0_24_124
*990 FILLER_0_24_134
*991 FILLER_0_24_141
*992 FILLER_0_24_15
*993 FILLER_0_24_170
*994 FILLER_0_24_193
*995 FILLER_0_24_197
*996 FILLER_0_24_209
*997 FILLER_0_24_221
*998 FILLER_0_24_234
*999 FILLER_0_24_246
*1000 FILLER_0_24_253
*1001 FILLER_0_24_29
*1002 FILLER_0_24_294
*1003 FILLER_0_24_3
*1004 FILLER_0_24_306
*1005 FILLER_0_24_318
*1006 FILLER_0_24_328
*1007 FILLER_0_24_334
*1008 FILLER_0_24_48
*1009 FILLER_0_24_83
*1010 FILLER_0_24_85
*1011 FILLER_0_25_111
*1012 FILLER_0_25_144
*1013 FILLER_0_25_15
*1014 FILLER_0_25_152
*1015 FILLER_0_25_198
*1016 FILLER_0_25_219
*1017 FILLER_0_25_253
*1018 FILLER_0_25_261
*1019 FILLER_0_25_289
*1020 FILLER_0_25_3
*1021 FILLER_0_25_301
*1022 FILLER_0_25_313
*1023 FILLER_0_25_325
*1024 FILLER_0_25_333
*1025 FILLER_0_25_48
*1026 FILLER_0_25_57
*1027 FILLER_0_25_63
*1028 FILLER_0_25_89
*1029 FILLER_0_26_110
*1030 FILLER_0_26_122
*1031 FILLER_0_26_15
*1032 FILLER_0_26_156
*1033 FILLER_0_26_168
*1034 FILLER_0_26_181
*1035 FILLER_0_26_194
*1036 FILLER_0_26_197
*1037 FILLER_0_26_209
*1038 FILLER_0_26_23
*1039 FILLER_0_26_248
*1040 FILLER_0_26_259
*1041 FILLER_0_26_265
*1042 FILLER_0_26_29
*1043 FILLER_0_26_3
*1044 FILLER_0_26_300
*1045 FILLER_0_26_304
*1046 FILLER_0_26_329
*1047 FILLER_0_26_49
*1048 FILLER_0_26_61
*1049 FILLER_0_26_73
*1050 FILLER_0_26_85
*1051 FILLER_0_26_97
*1052 FILLER_0_27_105
*1053 FILLER_0_27_111
*1054 FILLER_0_27_120
*1055 FILLER_0_27_132
*1056 FILLER_0_27_144
*1057 FILLER_0_27_15
*1058 FILLER_0_27_156
*1059 FILLER_0_27_167
*1060 FILLER_0_27_191
*1061 FILLER_0_27_203
*1062 FILLER_0_27_216
*1063 FILLER_0_27_229
*1064 FILLER_0_27_251
*1065 FILLER_0_27_290
*1066 FILLER_0_27_3
*1067 FILLER_0_27_330
*1068 FILLER_0_27_334
*1069 FILLER_0_27_37
*1070 FILLER_0_27_45
*1071 FILLER_0_27_53
*1072 FILLER_0_27_57
*1073 FILLER_0_27_69
*1074 FILLER_0_27_93
*1075 FILLER_0_28_116
*1076 FILLER_0_28_15
*1077 FILLER_0_28_158
*1078 FILLER_0_28_188
*1079 FILLER_0_28_192
*1080 FILLER_0_28_217
*1081 FILLER_0_28_229
*1082 FILLER_0_28_23
*1083 FILLER_0_28_235
*1084 FILLER_0_28_248
*1085 FILLER_0_28_265
*1086 FILLER_0_28_27
*1087 FILLER_0_28_287
*1088 FILLER_0_28_29
*1089 FILLER_0_28_299
*1090 FILLER_0_28_3
*1091 FILLER_0_28_326
*1092 FILLER_0_28_334
*1093 FILLER_0_28_55
*1094 FILLER_0_28_63
*1095 FILLER_0_29_102
*1096 FILLER_0_29_110
*1097 FILLER_0_29_113
*1098 FILLER_0_29_125
*1099 FILLER_0_29_166
*1100 FILLER_0_29_178
*1101 FILLER_0_29_190
*1102 FILLER_0_29_198
*1103 FILLER_0_29_210
*1104 FILLER_0_29_219
*1105 FILLER_0_29_223
*1106 FILLER_0_29_225
*1107 FILLER_0_29_247
*1108 FILLER_0_29_255
*1109 FILLER_0_29_275
*1110 FILLER_0_29_279
*1111 FILLER_0_29_291
*1112 FILLER_0_29_3
*1113 FILLER_0_29_303
*1114 FILLER_0_29_327
*1115 FILLER_0_29_53
*1116 FILLER_0_29_57
*1117 FILLER_0_29_65
*1118 FILLER_0_2_109
*1119 FILLER_0_2_121
*1120 FILLER_0_2_133
*1121 FILLER_0_2_139
*1122 FILLER_0_2_141
*1123 FILLER_0_2_15
*1124 FILLER_0_2_153
*1125 FILLER_0_2_165
*1126 FILLER_0_2_177
*1127 FILLER_0_2_189
*1128 FILLER_0_2_195
*1129 FILLER_0_2_197
*1130 FILLER_0_2_209
*1131 FILLER_0_2_221
*1132 FILLER_0_2_233
*1133 FILLER_0_2_245
*1134 FILLER_0_2_251
*1135 FILLER_0_2_253
*1136 FILLER_0_2_265
*1137 FILLER_0_2_27
*1138 FILLER_0_2_277
*1139 FILLER_0_2_289
*1140 FILLER_0_2_29
*1141 FILLER_0_2_3
*1142 FILLER_0_2_301
*1143 FILLER_0_2_307
*1144 FILLER_0_2_309
*1145 FILLER_0_2_321
*1146 FILLER_0_2_333
*1147 FILLER_0_2_41
*1148 FILLER_0_2_53
*1149 FILLER_0_2_65
*1150 FILLER_0_2_77
*1151 FILLER_0_2_83
*1152 FILLER_0_2_85
*1153 FILLER_0_2_97
*1154 FILLER_0_30_15
*1155 FILLER_0_30_150
*1156 FILLER_0_30_156
*1157 FILLER_0_30_177
*1158 FILLER_0_30_189
*1159 FILLER_0_30_195
*1160 FILLER_0_30_200
*1161 FILLER_0_30_222
*1162 FILLER_0_30_233
*1163 FILLER_0_30_241
*1164 FILLER_0_30_245
*1165 FILLER_0_30_251
*1166 FILLER_0_30_262
*1167 FILLER_0_30_273
*1168 FILLER_0_30_285
*1169 FILLER_0_30_29
*1170 FILLER_0_30_293
*1171 FILLER_0_30_3
*1172 FILLER_0_30_329
*1173 FILLER_0_30_42
*1174 FILLER_0_30_54
*1175 FILLER_0_30_66
*1176 FILLER_0_30_78
*1177 FILLER_0_30_99
*1178 FILLER_0_31_101
*1179 FILLER_0_31_105
*1180 FILLER_0_31_139
*1181 FILLER_0_31_147
*1182 FILLER_0_31_15
*1183 FILLER_0_31_156
*1184 FILLER_0_31_165
*1185 FILLER_0_31_186
*1186 FILLER_0_31_222
*1187 FILLER_0_31_233
*1188 FILLER_0_31_289
*1189 FILLER_0_31_3
*1190 FILLER_0_31_301
*1191 FILLER_0_31_314
*1192 FILLER_0_31_40
*1193 FILLER_0_31_52
*1194 FILLER_0_31_57
*1195 FILLER_0_31_89
*1196 FILLER_0_32_100
*1197 FILLER_0_32_133
*1198 FILLER_0_32_139
*1199 FILLER_0_32_141
*1200 FILLER_0_32_15
*1201 FILLER_0_32_153
*1202 FILLER_0_32_163
*1203 FILLER_0_32_175
*1204 FILLER_0_32_187
*1205 FILLER_0_32_195
*1206 FILLER_0_32_197
*1207 FILLER_0_32_208
*1208 FILLER_0_32_23
*1209 FILLER_0_32_243
*1210 FILLER_0_32_262
*1211 FILLER_0_32_27
*1212 FILLER_0_32_29
*1213 FILLER_0_32_295
*1214 FILLER_0_32_3
*1215 FILLER_0_32_307
*1216 FILLER_0_32_329
*1217 FILLER_0_32_44
*1218 FILLER_0_32_56
*1219 FILLER_0_32_88
*1220 FILLER_0_33_108
*1221 FILLER_0_33_122
*1222 FILLER_0_33_134
*1223 FILLER_0_33_146
*1224 FILLER_0_33_15
*1225 FILLER_0_33_164
*1226 FILLER_0_33_169
*1227 FILLER_0_33_177
*1228 FILLER_0_33_189
*1229 FILLER_0_33_201
*1230 FILLER_0_33_209
*1231 FILLER_0_33_221
*1232 FILLER_0_33_225
*1233 FILLER_0_33_237
*1234 FILLER_0_33_249
*1235 FILLER_0_33_259
*1236 FILLER_0_33_27
*1237 FILLER_0_33_270
*1238 FILLER_0_33_278
*1239 FILLER_0_33_281
*1240 FILLER_0_33_293
*1241 FILLER_0_33_3
*1242 FILLER_0_33_333
*1243 FILLER_0_33_34
*1244 FILLER_0_33_40
*1245 FILLER_0_33_46
*1246 FILLER_0_33_52
*1247 FILLER_0_33_85
*1248 FILLER_0_33_97
*1249 FILLER_0_34_105
*1250 FILLER_0_34_117
*1251 FILLER_0_34_128
*1252 FILLER_0_34_141
*1253 FILLER_0_34_145
*1254 FILLER_0_34_15
*1255 FILLER_0_34_174
*1256 FILLER_0_34_183
*1257 FILLER_0_34_191
*1258 FILLER_0_34_195
*1259 FILLER_0_34_206
*1260 FILLER_0_34_214
*1261 FILLER_0_34_220
*1262 FILLER_0_34_232
*1263 FILLER_0_34_238
*1264 FILLER_0_34_248
*1265 FILLER_0_34_27
*1266 FILLER_0_34_278
*1267 FILLER_0_34_284
*1268 FILLER_0_34_29
*1269 FILLER_0_34_290
*1270 FILLER_0_34_296
*1271 FILLER_0_34_3
*1272 FILLER_0_34_321
*1273 FILLER_0_34_328
*1274 FILLER_0_34_334
*1275 FILLER_0_34_38
*1276 FILLER_0_34_54
*1277 FILLER_0_34_62
*1278 FILLER_0_34_80
*1279 FILLER_0_34_93
*1280 FILLER_0_35_110
*1281 FILLER_0_35_113
*1282 FILLER_0_35_120
*1283 FILLER_0_35_129
*1284 FILLER_0_35_141
*1285 FILLER_0_35_149
*1286 FILLER_0_35_15
*1287 FILLER_0_35_157
*1288 FILLER_0_35_163
*1289 FILLER_0_35_167
*1290 FILLER_0_35_169
*1291 FILLER_0_35_182
*1292 FILLER_0_35_186
*1293 FILLER_0_35_207
*1294 FILLER_0_35_221
*1295 FILLER_0_35_225
*1296 FILLER_0_35_233
*1297 FILLER_0_35_27
*1298 FILLER_0_35_279
*1299 FILLER_0_35_281
*1300 FILLER_0_35_290
*1301 FILLER_0_35_3
*1302 FILLER_0_35_303
*1303 FILLER_0_35_315
*1304 FILLER_0_35_327
*1305 FILLER_0_35_53
*1306 FILLER_0_35_57
*1307 FILLER_0_35_69
*1308 FILLER_0_35_86
*1309 FILLER_0_35_98
*1310 FILLER_0_36_105
*1311 FILLER_0_36_141
*1312 FILLER_0_36_15
*1313 FILLER_0_36_188
*1314 FILLER_0_36_197
*1315 FILLER_0_36_203
*1316 FILLER_0_36_212
*1317 FILLER_0_36_237
*1318 FILLER_0_36_241
*1319 FILLER_0_36_249
*1320 FILLER_0_36_253
*1321 FILLER_0_36_257
*1322 FILLER_0_36_261
*1323 FILLER_0_36_266
*1324 FILLER_0_36_27
*1325 FILLER_0_36_273
*1326 FILLER_0_36_285
*1327 FILLER_0_36_29
*1328 FILLER_0_36_3
*1329 FILLER_0_36_300
*1330 FILLER_0_36_332
*1331 FILLER_0_36_41
*1332 FILLER_0_36_53
*1333 FILLER_0_37_105
*1334 FILLER_0_37_111
*1335 FILLER_0_37_117
*1336 FILLER_0_37_128
*1337 FILLER_0_37_132
*1338 FILLER_0_37_15
*1339 FILLER_0_37_156
*1340 FILLER_0_37_162
*1341 FILLER_0_37_166
*1342 FILLER_0_37_169
*1343 FILLER_0_37_195
*1344 FILLER_0_37_203
*1345 FILLER_0_37_243
*1346 FILLER_0_37_251
*1347 FILLER_0_37_27
*1348 FILLER_0_37_281
*1349 FILLER_0_37_293
*1350 FILLER_0_37_3
*1351 FILLER_0_37_331
*1352 FILLER_0_37_39
*1353 FILLER_0_37_51
*1354 FILLER_0_37_55
*1355 FILLER_0_37_57
*1356 FILLER_0_37_62
*1357 FILLER_0_37_66
*1358 FILLER_0_37_93
*1359 FILLER_0_38_10
*1360 FILLER_0_38_102
*1361 FILLER_0_38_106
*1362 FILLER_0_38_110
*1363 FILLER_0_38_113
*1364 FILLER_0_38_118
*1365 FILLER_0_38_122
*1366 FILLER_0_38_126
*1367 FILLER_0_38_138
*1368 FILLER_0_38_14
*1369 FILLER_0_38_141
*1370 FILLER_0_38_153
*1371 FILLER_0_38_165
*1372 FILLER_0_38_169
*1373 FILLER_0_38_18
*1374 FILLER_0_38_185
*1375 FILLER_0_38_193
*1376 FILLER_0_38_197
*1377 FILLER_0_38_209
*1378 FILLER_0_38_217
*1379 FILLER_0_38_22
*1380 FILLER_0_38_228
*1381 FILLER_0_38_234
*1382 FILLER_0_38_239
*1383 FILLER_0_38_247
*1384 FILLER_0_38_251
*1385 FILLER_0_38_262
*1386 FILLER_0_38_266
*1387 FILLER_0_38_270
*1388 FILLER_0_38_279
*1389 FILLER_0_38_281
*1390 FILLER_0_38_286
*1391 FILLER_0_38_290
*1392 FILLER_0_38_294
*1393 FILLER_0_38_298
*1394 FILLER_0_38_302
*1395 FILLER_0_38_309
*1396 FILLER_0_38_317
*1397 FILLER_0_38_32
*1398 FILLER_0_38_330
*1399 FILLER_0_38_38
*1400 FILLER_0_38_42
*1401 FILLER_0_38_46
*1402 FILLER_0_38_50
*1403 FILLER_0_38_54
*1404 FILLER_0_38_57
*1405 FILLER_0_38_6
*1406 FILLER_0_38_82
*1407 FILLER_0_38_85
*1408 FILLER_0_38_97
*1409 FILLER_0_3_105
*1410 FILLER_0_3_111
*1411 FILLER_0_3_113
*1412 FILLER_0_3_125
*1413 FILLER_0_3_137
*1414 FILLER_0_3_149
*1415 FILLER_0_3_15
*1416 FILLER_0_3_161
*1417 FILLER_0_3_167
*1418 FILLER_0_3_169
*1419 FILLER_0_3_181
*1420 FILLER_0_3_193
*1421 FILLER_0_3_205
*1422 FILLER_0_3_217
*1423 FILLER_0_3_223
*1424 FILLER_0_3_225
*1425 FILLER_0_3_237
*1426 FILLER_0_3_249
*1427 FILLER_0_3_261
*1428 FILLER_0_3_27
*1429 FILLER_0_3_273
*1430 FILLER_0_3_279
*1431 FILLER_0_3_281
*1432 FILLER_0_3_293
*1433 FILLER_0_3_3
*1434 FILLER_0_3_305
*1435 FILLER_0_3_317
*1436 FILLER_0_3_329
*1437 FILLER_0_3_39
*1438 FILLER_0_3_51
*1439 FILLER_0_3_55
*1440 FILLER_0_3_57
*1441 FILLER_0_3_69
*1442 FILLER_0_3_81
*1443 FILLER_0_3_93
*1444 FILLER_0_4_109
*1445 FILLER_0_4_121
*1446 FILLER_0_4_133
*1447 FILLER_0_4_139
*1448 FILLER_0_4_141
*1449 FILLER_0_4_15
*1450 FILLER_0_4_153
*1451 FILLER_0_4_165
*1452 FILLER_0_4_177
*1453 FILLER_0_4_189
*1454 FILLER_0_4_195
*1455 FILLER_0_4_197
*1456 FILLER_0_4_209
*1457 FILLER_0_4_221
*1458 FILLER_0_4_233
*1459 FILLER_0_4_245
*1460 FILLER_0_4_251
*1461 FILLER_0_4_253
*1462 FILLER_0_4_265
*1463 FILLER_0_4_27
*1464 FILLER_0_4_277
*1465 FILLER_0_4_289
*1466 FILLER_0_4_29
*1467 FILLER_0_4_3
*1468 FILLER_0_4_301
*1469 FILLER_0_4_307
*1470 FILLER_0_4_309
*1471 FILLER_0_4_321
*1472 FILLER_0_4_333
*1473 FILLER_0_4_41
*1474 FILLER_0_4_53
*1475 FILLER_0_4_65
*1476 FILLER_0_4_77
*1477 FILLER_0_4_83
*1478 FILLER_0_4_85
*1479 FILLER_0_4_97
*1480 FILLER_0_5_105
*1481 FILLER_0_5_111
*1482 FILLER_0_5_113
*1483 FILLER_0_5_125
*1484 FILLER_0_5_137
*1485 FILLER_0_5_149
*1486 FILLER_0_5_15
*1487 FILLER_0_5_161
*1488 FILLER_0_5_167
*1489 FILLER_0_5_169
*1490 FILLER_0_5_181
*1491 FILLER_0_5_193
*1492 FILLER_0_5_205
*1493 FILLER_0_5_217
*1494 FILLER_0_5_223
*1495 FILLER_0_5_225
*1496 FILLER_0_5_237
*1497 FILLER_0_5_249
*1498 FILLER_0_5_261
*1499 FILLER_0_5_27
*1500 FILLER_0_5_273
*1501 FILLER_0_5_279
*1502 FILLER_0_5_281
*1503 FILLER_0_5_293
*1504 FILLER_0_5_3
*1505 FILLER_0_5_305
*1506 FILLER_0_5_317
*1507 FILLER_0_5_329
*1508 FILLER_0_5_39
*1509 FILLER_0_5_51
*1510 FILLER_0_5_55
*1511 FILLER_0_5_57
*1512 FILLER_0_5_69
*1513 FILLER_0_5_81
*1514 FILLER_0_5_93
*1515 FILLER_0_6_109
*1516 FILLER_0_6_121
*1517 FILLER_0_6_133
*1518 FILLER_0_6_139
*1519 FILLER_0_6_141
*1520 FILLER_0_6_15
*1521 FILLER_0_6_153
*1522 FILLER_0_6_165
*1523 FILLER_0_6_177
*1524 FILLER_0_6_189
*1525 FILLER_0_6_195
*1526 FILLER_0_6_197
*1527 FILLER_0_6_209
*1528 FILLER_0_6_221
*1529 FILLER_0_6_233
*1530 FILLER_0_6_245
*1531 FILLER_0_6_251
*1532 FILLER_0_6_253
*1533 FILLER_0_6_265
*1534 FILLER_0_6_27
*1535 FILLER_0_6_277
*1536 FILLER_0_6_289
*1537 FILLER_0_6_29
*1538 FILLER_0_6_3
*1539 FILLER_0_6_301
*1540 FILLER_0_6_307
*1541 FILLER_0_6_309
*1542 FILLER_0_6_321
*1543 FILLER_0_6_333
*1544 FILLER_0_6_41
*1545 FILLER_0_6_53
*1546 FILLER_0_6_65
*1547 FILLER_0_6_77
*1548 FILLER_0_6_83
*1549 FILLER_0_6_85
*1550 FILLER_0_6_97
*1551 FILLER_0_7_105
*1552 FILLER_0_7_111
*1553 FILLER_0_7_113
*1554 FILLER_0_7_125
*1555 FILLER_0_7_137
*1556 FILLER_0_7_149
*1557 FILLER_0_7_15
*1558 FILLER_0_7_161
*1559 FILLER_0_7_167
*1560 FILLER_0_7_169
*1561 FILLER_0_7_181
*1562 FILLER_0_7_193
*1563 FILLER_0_7_205
*1564 FILLER_0_7_217
*1565 FILLER_0_7_223
*1566 FILLER_0_7_225
*1567 FILLER_0_7_237
*1568 FILLER_0_7_249
*1569 FILLER_0_7_261
*1570 FILLER_0_7_27
*1571 FILLER_0_7_273
*1572 FILLER_0_7_279
*1573 FILLER_0_7_281
*1574 FILLER_0_7_293
*1575 FILLER_0_7_3
*1576 FILLER_0_7_305
*1577 FILLER_0_7_317
*1578 FILLER_0_7_329
*1579 FILLER_0_7_39
*1580 FILLER_0_7_51
*1581 FILLER_0_7_55
*1582 FILLER_0_7_57
*1583 FILLER_0_7_69
*1584 FILLER_0_7_81
*1585 FILLER_0_7_93
*1586 FILLER_0_8_109
*1587 FILLER_0_8_121
*1588 FILLER_0_8_133
*1589 FILLER_0_8_139
*1590 FILLER_0_8_141
*1591 FILLER_0_8_15
*1592 FILLER_0_8_153
*1593 FILLER_0_8_165
*1594 FILLER_0_8_177
*1595 FILLER_0_8_189
*1596 FILLER_0_8_195
*1597 FILLER_0_8_197
*1598 FILLER_0_8_209
*1599 FILLER_0_8_221
*1600 FILLER_0_8_233
*1601 FILLER_0_8_245
*1602 FILLER_0_8_251
*1603 FILLER_0_8_253
*1604 FILLER_0_8_265
*1605 FILLER_0_8_27
*1606 FILLER_0_8_277
*1607 FILLER_0_8_289
*1608 FILLER_0_8_29
*1609 FILLER_0_8_3
*1610 FILLER_0_8_301
*1611 FILLER_0_8_307
*1612 FILLER_0_8_309
*1613 FILLER_0_8_321
*1614 FILLER_0_8_333
*1615 FILLER_0_8_41
*1616 FILLER_0_8_53
*1617 FILLER_0_8_65
*1618 FILLER_0_8_77
*1619 FILLER_0_8_83
*1620 FILLER_0_8_85
*1621 FILLER_0_8_97
*1622 FILLER_0_9_105
*1623 FILLER_0_9_111
*1624 FILLER_0_9_113
*1625 FILLER_0_9_125
*1626 FILLER_0_9_137
*1627 FILLER_0_9_149
*1628 FILLER_0_9_15
*1629 FILLER_0_9_161
*1630 FILLER_0_9_167
*1631 FILLER_0_9_169
*1632 FILLER_0_9_181
*1633 FILLER_0_9_193
*1634 FILLER_0_9_205
*1635 FILLER_0_9_217