*SPEF "ieee 1481-1999"
*DESIGN "tt_um_andrewtron3000"
*DATE "03:32:03 Friday April 12, 2024"
*VENDOR "The OpenROAD Project"
*PROGRAM "OpenROAD"
*VERSION "0889970d1790a2617e69f253221b8bd7626e51dc"
*DESIGN_FLOW "NAME_SCOPE LOCAL" "PIN_CAP NONE"
*DIVIDER /
*DELIMITER :
*BUS_DELIMITER []
*T_UNIT 1 NS
*C_UNIT 1 PF
*R_UNIT 1 OHM
*L_UNIT 1 HENRY

*NAME_MAP
*3 clk
*4 ena
*5 rst_n
*6 ui_in[0]
*7 ui_in[1]
*8 ui_in[2]
*9 ui_in[3]
*10 ui_in[4]
*11 ui_in[5]
*12 ui_in[6]
*13 ui_in[7]
*14 uio_in[0]
*15 uio_in[1]
*16 uio_in[2]
*17 uio_in[3]
*18 uio_in[4]
*19 uio_in[5]
*20 uio_in[6]
*21 uio_in[7]
*22 net14
*23 net15
*24 net16
*25 net17
*26 net18
*27 net19
*28 net20
*29 net21
*30 net22
*31 net23
*32 net24
*33 net25
*34 net26
*35 net27
*36 net28
*37 net29
*38 net30
*39 net31
*40 net32
*41 net33
*42 uo_out[4]
*43 net34
*44 net35
*45 net36
*46 _000_
*47 _001_
*48 _002_
*49 _003_
*50 _004_
*51 _005_
*52 _006_
*53 _007_
*54 _008_
*55 _009_
*56 _010_
*57 _011_
*58 _012_
*59 _013_
*60 _014_
*61 _015_
*62 _016_
*63 _017_
*64 _018_
*65 _019_
*66 _020_
*67 _021_
*68 _022_
*69 _023_
*70 _024_
*71 _025_
*72 _026_
*73 _027_
*74 _028_
*75 _040_
*76 _041_
*77 _042_
*78 _043_
*79 _044_
*80 _045_
*81 _046_
*82 _047_
*83 _048_
*84 _049_
*85 _050_
*86 _051_
*87 _052_
*88 _053_
*89 _054_
*90 _055_
*91 _056_
*92 _057_
*93 _058_
*94 _059_
*95 _060_
*96 _061_
*97 _062_
*98 _063_
*99 _064_
*100 _065_
*101 _066_
*102 _067_
*103 _068_
*104 _069_
*105 _070_
*106 _071_
*107 _072_
*108 _073_
*109 _074_
*110 _075_
*111 _076_
*112 _077_
*113 _078_
*114 _079_
*115 _080_
*116 _081_
*117 _082_
*118 _083_
*119 _084_
*120 _085_
*121 _086_
*122 _087_
*123 _088_
*124 _089_
*125 _090_
*126 _091_
*127 _092_
*128 _093_
*129 _094_
*130 _095_
*131 _096_
*132 _097_
*133 _098_
*134 _099_
*135 _100_
*136 _101_
*137 _102_
*138 _103_
*139 _104_
*140 _105_
*141 _106_
*142 _107_
*143 _108_
*144 _109_
*145 _110_
*146 _111_
*147 _112_
*148 _113_
*149 _114_
*150 _115_
*151 _116_
*152 _117_
*153 _118_
*154 _119_
*155 _120_
*156 _121_
*157 _122_
*158 _123_
*159 _124_
*160 _125_
*161 _126_
*162 _127_
*163 _128_
*164 _129_
*165 _130_
*166 _131_
*167 _132_
*168 _133_
*169 _134_
*170 _135_
*171 _136_
*172 _137_
*173 _138_
*174 _139_
*175 _140_
*176 _141_
*177 _142_
*178 _143_
*179 _144_
*180 _145_
*181 _146_
*182 _147_
*183 _148_
*184 _149_
*185 _150_
*186 _151_
*187 _152_
*188 _153_
*189 _154_
*190 _155_
*191 _156_
*192 _157_
*193 _158_
*194 _159_
*195 _160_
*196 _161_
*197 _162_
*198 _163_
*199 _164_
*200 _165_
*201 _166_
*202 _167_
*203 _168_
*204 _169_
*205 _170_
*206 _171_
*207 _172_
*208 _173_
*209 _174_
*210 _175_
*211 _176_
*212 _177_
*213 _178_
*214 _179_
*215 _180_
*216 _181_
*217 _182_
*218 _183_
*219 _184_
*220 _185_
*221 _186_
*222 _187_
*223 _188_
*224 _189_
*225 _190_
*226 _191_
*227 _192_
*228 _193_
*229 _194_
*230 _195_
*231 _196_
*232 _197_
*233 _198_
*234 _199_
*235 _200_
*236 _201_
*237 _202_
*238 _203_
*239 _204_
*240 _205_
*241 _206_
*242 _207_
*243 _208_
*244 _209_
*245 _210_
*246 _211_
*247 _212_
*248 _213_
*249 _214_
*250 _215_
*251 _216_
*252 _217_
*253 _218_
*254 _219_
*255 _220_
*256 _221_
*257 _222_
*258 _223_
*259 _224_
*260 _225_
*261 _226_
*262 _227_
*263 _228_
*264 _229_
*265 _230_
*266 _231_
*267 _232_
*268 _233_
*269 _234_
*270 _235_
*271 _236_
*272 _237_
*273 _238_
*274 _239_
*275 _240_
*276 _241_
*277 _242_
*278 _243_
*279 _244_
*280 _245_
*281 _246_
*282 _247_
*283 _248_
*284 _249_
*285 _250_
*286 _251_
*287 _252_
*288 _253_
*289 _254_
*290 _255_
*291 _256_
*292 _257_
*293 _258_
*294 _259_
*295 _260_
*296 _261_
*297 _262_
*298 _263_
*299 _264_
*300 _265_
*301 _266_
*302 _267_
*303 _268_
*304 _269_
*305 _270_
*306 _271_
*307 _272_
*308 _273_
*309 _274_
*310 _275_
*311 _276_
*312 _277_
*313 _278_
*314 _279_
*315 _280_
*316 _281_
*317 _282_
*318 _283_
*319 _284_
*320 _285_
*321 _286_
*322 _287_
*323 _288_
*324 _289_
*325 _290_
*326 _291_
*327 _292_
*328 _293_
*329 _294_
*330 _295_
*331 _296_
*332 _297_
*333 _298_
*334 _299_
*335 _300_
*336 _301_
*337 _302_
*338 _303_
*339 _304_
*340 _305_
*341 _306_
*342 _307_
*343 _308_
*344 _309_
*345 _310_
*346 _311_
*347 _312_
*348 _313_
*349 _314_
*350 _315_
*351 _316_
*352 _317_
*353 _318_
*354 _319_
*355 _320_
*356 _321_
*357 _322_
*358 _323_
*359 _324_
*360 _325_
*361 _326_
*362 clknet_0_clk
*363 clknet_3_0__leaf_clk
*364 clknet_3_1__leaf_clk
*365 clknet_3_2__leaf_clk
*366 clknet_3_3__leaf_clk
*367 clknet_3_4__leaf_clk
*368 clknet_3_5__leaf_clk
*369 clknet_3_6__leaf_clk
*370 clknet_3_7__leaf_clk
*371 net1
*372 net10
*373 net11
*374 net12
*375 net13
*376 net2
*377 net3
*378 net37
*379 net38
*380 net39
*381 net4
*382 net40
*383 net41
*384 net42
*385 net43
*386 net44
*387 net45
*388 net46
*389 net47
*390 net48
*391 net49
*392 net5
*393 net50
*394 net51
*395 net52
*396 net53
*397 net54
*398 net55
*399 net56
*400 net57
*401 net58
*402 net59
*403 net6
*404 net60
*405 net61
*406 net62
*407 net63
*408 net64
*409 net65
*410 net66
*411 net67
*412 net68
*413 net69
*414 net7
*415 net70
*416 net71
*417 net72
*418 net73
*419 net74
*420 net75
*421 net76
*422 net77
*423 net78
*424 net79
*425 net8
*426 net80
*427 net81
*428 net82
*429 net83
*430 net84
*431 net85
*432 net86
*433 net87
*434 net88
*435 net89
*436 net9
*437 net90
*438 net91
*439 net92
*440 net93
*441 net94
*442 net95
*443 rule_30_driver\.EN_startup_value
*444 rule_30_driver\.RST_N
*445 rule_30_driver\.a\[0\]
*446 rule_30_driver\.a\[1\]
*447 rule_30_driver\.a\[2\]
*448 rule_30_driver\.a\[3\]
*449 rule_30_driver\.a\[4\]
*450 rule_30_driver\.a\[5\]
*451 rule_30_driver\.a\[6\]
*452 rule_30_driver\.a\[7\]
*453 rule_30_driver\.rule30\$getResult\[0\]
*454 rule_30_driver\.rule30\$getResult\[1\]
*455 rule_30_driver\.rule30\$getResult\[2\]
*456 rule_30_driver\.rule30\$getResult\[3\]
*457 rule_30_driver\.rule30\$getResult\[4\]
*458 rule_30_driver\.rule30\$getResult\[5\]
*459 rule_30_driver\.rule30\$getResult\[6\]
*460 rule_30_driver\.rule30\$getResult\[7\]
*461 rule_30_driver\.rule30\.busy_flag
*462 rule_30_driver\.rule30\.step_complete
*463 rule_30_driver\.transmit_state\[1\]
*464 rule_30_driver\.transmit_state\[2\]
*465 rule_30_driver\.txrx_SOUT
*466 rule_30_driver\.uart_baudGen_rBaudCounter\$Q_OUT\[0\]
*467 rule_30_driver\.uart_baudGen_rBaudCounter\$Q_OUT\[10\]
*468 rule_30_driver\.uart_baudGen_rBaudCounter\$Q_OUT\[11\]
*469 rule_30_driver\.uart_baudGen_rBaudCounter\$Q_OUT\[12\]
*470 rule_30_driver\.uart_baudGen_rBaudCounter\$Q_OUT\[13\]
*471 rule_30_driver\.uart_baudGen_rBaudCounter\$Q_OUT\[14\]
*472 rule_30_driver\.uart_baudGen_rBaudCounter\$Q_OUT\[15\]
*473 rule_30_driver\.uart_baudGen_rBaudCounter\$Q_OUT\[1\]
*474 rule_30_driver\.uart_baudGen_rBaudCounter\$Q_OUT\[2\]
*475 rule_30_driver\.uart_baudGen_rBaudCounter\$Q_OUT\[3\]
*476 rule_30_driver\.uart_baudGen_rBaudCounter\$Q_OUT\[4\]
*477 rule_30_driver\.uart_baudGen_rBaudCounter\$Q_OUT\[5\]
*478 rule_30_driver\.uart_baudGen_rBaudCounter\$Q_OUT\[6\]
*479 rule_30_driver\.uart_baudGen_rBaudCounter\$Q_OUT\[7\]
*480 rule_30_driver\.uart_baudGen_rBaudCounter\$Q_OUT\[8\]
*481 rule_30_driver\.uart_baudGen_rBaudCounter\$Q_OUT\[9\]
*482 rule_30_driver\.uart_fifoXmit\$D_OUT\[0\]
*483 rule_30_driver\.uart_fifoXmit\$D_OUT\[1\]
*484 rule_30_driver\.uart_fifoXmit\$D_OUT\[2\]
*485 rule_30_driver\.uart_fifoXmit\$D_OUT\[3\]
*486 rule_30_driver\.uart_fifoXmit\$D_OUT\[4\]
*487 rule_30_driver\.uart_fifoXmit\$D_OUT\[5\]
*488 rule_30_driver\.uart_fifoXmit\$D_OUT\[6\]
*489 rule_30_driver\.uart_fifoXmit\$D_OUT\[7\]
*490 rule_30_driver\.uart_fifoXmit\$EMPTY_N
*491 rule_30_driver\.uart_fifoXmit\$FULL_N
*492 rule_30_driver\.uart_fifoXmit\.arr\[0\]\[0\]
*493 rule_30_driver\.uart_fifoXmit\.arr\[0\]\[1\]
*494 rule_30_driver\.uart_fifoXmit\.arr\[0\]\[2\]
*495 rule_30_driver\.uart_fifoXmit\.arr\[0\]\[3\]
*496 rule_30_driver\.uart_fifoXmit\.arr\[0\]\[4\]
*497 rule_30_driver\.uart_fifoXmit\.arr\[0\]\[5\]
*498 rule_30_driver\.uart_fifoXmit\.arr\[0\]\[6\]
*499 rule_30_driver\.uart_fifoXmit\.arr\[0\]\[7\]
*500 rule_30_driver\.uart_fifoXmit\.arr\[1\]\[0\]
*501 rule_30_driver\.uart_fifoXmit\.arr\[1\]\[1\]
*502 rule_30_driver\.uart_fifoXmit\.arr\[1\]\[2\]
*503 rule_30_driver\.uart_fifoXmit\.arr\[1\]\[3\]
*504 rule_30_driver\.uart_fifoXmit\.arr\[1\]\[4\]
*505 rule_30_driver\.uart_fifoXmit\.arr\[1\]\[5\]
*506 rule_30_driver\.uart_fifoXmit\.arr\[1\]\[6\]
*507 rule_30_driver\.uart_fifoXmit\.arr\[1\]\[7\]
*508 rule_30_driver\.uart_fifoXmit\.head
*509 rule_30_driver\.uart_fifoXmit\.ring_empty
*510 rule_30_driver\.uart_fifoXmit\.tail
*511 rule_30_driver\.uart_rXmitBitCount\[0\]
*512 rule_30_driver\.uart_rXmitBitCount\[1\]
*513 rule_30_driver\.uart_rXmitBitCount\[2\]
*514 rule_30_driver\.uart_rXmitBitCount\[3\]
*515 rule_30_driver\.uart_rXmitCellCount\[0\]
*516 rule_30_driver\.uart_rXmitCellCount\[1\]
*517 rule_30_driver\.uart_rXmitCellCount\[2\]
*518 rule_30_driver\.uart_rXmitCellCount\[3\]
*519 rule_30_driver\.uart_rXmitState\[0\]
*520 rule_30_driver\.uart_rXmitState\[1\]
*521 rule_30_driver\.uart_rXmitState\[2\]
*522 rule_30_driver\.uart_rXmitState\[3\]
*523 rule_30_driver\.uart_rXmitState\[4\]
*524 rule_30_driver\.uart_rXmitState\[5\]
*525 rule_30_driver\.uart_rXmitState\[6\]
*526 rule_30_driver\.uart_rXmitState\[7\]
*527 rule_30_driver\.uart_vrXmitBuffer_0
*528 rule_30_driver\.uart_vrXmitBuffer_1
*529 rule_30_driver\.uart_vrXmitBuffer_2
*530 rule_30_driver\.uart_vrXmitBuffer_3
*531 rule_30_driver\.uart_vrXmitBuffer_4
*532 rule_30_driver\.uart_vrXmitBuffer_5
*533 rule_30_driver\.uart_vrXmitBuffer_6
*534 rule_30_driver\.uart_vrXmitBuffer_7
*535 FILLER_0_0_109
*536 FILLER_0_0_113
*537 FILLER_0_0_125
*538 FILLER_0_0_137
*539 FILLER_0_0_141
*540 FILLER_0_0_15
*541 FILLER_0_0_153
*542 FILLER_0_0_165
*543 FILLER_0_0_169
*544 FILLER_0_0_181
*545 FILLER_0_0_193
*546 FILLER_0_0_197
*547 FILLER_0_0_209
*548 FILLER_0_0_221
*549 FILLER_0_0_225
*550 FILLER_0_0_237
*551 FILLER_0_0_249
*552 FILLER_0_0_253
*553 FILLER_0_0_265
*554 FILLER_0_0_27
*555 FILLER_0_0_277
*556 FILLER_0_0_281
*557 FILLER_0_0_29
*558 FILLER_0_0_293
*559 FILLER_0_0_3
*560 FILLER_0_0_305
*561 FILLER_0_0_309
*562 FILLER_0_0_321
*563 FILLER_0_0_333
*564 FILLER_0_0_41
*565 FILLER_0_0_53
*566 FILLER_0_0_57
*567 FILLER_0_0_69
*568 FILLER_0_0_81
*569 FILLER_0_0_85
*570 FILLER_0_0_97
*571 FILLER_0_10_109
*572 FILLER_0_10_121
*573 FILLER_0_10_133
*574 FILLER_0_10_139
*575 FILLER_0_10_141
*576 FILLER_0_10_15
*577 FILLER_0_10_153
*578 FILLER_0_10_165
*579 FILLER_0_10_177
*580 FILLER_0_10_189
*581 FILLER_0_10_195
*582 FILLER_0_10_197
*583 FILLER_0_10_209
*584 FILLER_0_10_221
*585 FILLER_0_10_233
*586 FILLER_0_10_245
*587 FILLER_0_10_251
*588 FILLER_0_10_253
*589 FILLER_0_10_265
*590 FILLER_0_10_27
*591 FILLER_0_10_277
*592 FILLER_0_10_289
*593 FILLER_0_10_29
*594 FILLER_0_10_3
*595 FILLER_0_10_301
*596 FILLER_0_10_307
*597 FILLER_0_10_309
*598 FILLER_0_10_321
*599 FILLER_0_10_333
*600 FILLER_0_10_41
*601 FILLER_0_10_53
*602 FILLER_0_10_65
*603 FILLER_0_10_77
*604 FILLER_0_10_83
*605 FILLER_0_10_85
*606 FILLER_0_10_97
*607 FILLER_0_11_105
*608 FILLER_0_11_111
*609 FILLER_0_11_113
*610 FILLER_0_11_125
*611 FILLER_0_11_137
*612 FILLER_0_11_149
*613 FILLER_0_11_15
*614 FILLER_0_11_161
*615 FILLER_0_11_167
*616 FILLER_0_11_169
*617 FILLER_0_11_181
*618 FILLER_0_11_189
*619 FILLER_0_11_210
*620 FILLER_0_11_222
*621 FILLER_0_11_225
*622 FILLER_0_11_237
*623 FILLER_0_11_249
*624 FILLER_0_11_261
*625 FILLER_0_11_27
*626 FILLER_0_11_273
*627 FILLER_0_11_279
*628 FILLER_0_11_281
*629 FILLER_0_11_293
*630 FILLER_0_11_3
*631 FILLER_0_11_305
*632 FILLER_0_11_317
*633 FILLER_0_11_329
*634 FILLER_0_11_39
*635 FILLER_0_11_51
*636 FILLER_0_11_55
*637 FILLER_0_11_57
*638 FILLER_0_11_69
*639 FILLER_0_11_81
*640 FILLER_0_11_93
*641 FILLER_0_12_109
*642 FILLER_0_12_121
*643 FILLER_0_12_133
*644 FILLER_0_12_139
*645 FILLER_0_12_141
*646 FILLER_0_12_15
*647 FILLER_0_12_153
*648 FILLER_0_12_165
*649 FILLER_0_12_183
*650 FILLER_0_12_189
*651 FILLER_0_12_213
*652 FILLER_0_12_225
*653 FILLER_0_12_237
*654 FILLER_0_12_249
*655 FILLER_0_12_253
*656 FILLER_0_12_265
*657 FILLER_0_12_27
*658 FILLER_0_12_277
*659 FILLER_0_12_289
*660 FILLER_0_12_29
*661 FILLER_0_12_3
*662 FILLER_0_12_301
*663 FILLER_0_12_307
*664 FILLER_0_12_309
*665 FILLER_0_12_321
*666 FILLER_0_12_333
*667 FILLER_0_12_41
*668 FILLER_0_12_53
*669 FILLER_0_12_65
*670 FILLER_0_12_77
*671 FILLER_0_12_83
*672 FILLER_0_12_85
*673 FILLER_0_12_97
*674 FILLER_0_13_105
*675 FILLER_0_13_111
*676 FILLER_0_13_113
*677 FILLER_0_13_125
*678 FILLER_0_13_137
*679 FILLER_0_13_149
*680 FILLER_0_13_15
*681 FILLER_0_13_161
*682 FILLER_0_13_185
*683 FILLER_0_13_193
*684 FILLER_0_13_212
*685 FILLER_0_13_225
*686 FILLER_0_13_237
*687 FILLER_0_13_249
*688 FILLER_0_13_261
*689 FILLER_0_13_27
*690 FILLER_0_13_281
*691 FILLER_0_13_293
*692 FILLER_0_13_3
*693 FILLER_0_13_305
*694 FILLER_0_13_317
*695 FILLER_0_13_329
*696 FILLER_0_13_39
*697 FILLER_0_13_51
*698 FILLER_0_13_55
*699 FILLER_0_13_57
*700 FILLER_0_13_69
*701 FILLER_0_13_81
*702 FILLER_0_13_93
*703 FILLER_0_14_109
*704 FILLER_0_14_121
*705 FILLER_0_14_133
*706 FILLER_0_14_139
*707 FILLER_0_14_141
*708 FILLER_0_14_15
*709 FILLER_0_14_175
*710 FILLER_0_14_187
*711 FILLER_0_14_194
*712 FILLER_0_14_215
*713 FILLER_0_14_227
*714 FILLER_0_14_244
*715 FILLER_0_14_253
*716 FILLER_0_14_259
*717 FILLER_0_14_265
*718 FILLER_0_14_27
*719 FILLER_0_14_282
*720 FILLER_0_14_29
*721 FILLER_0_14_294
*722 FILLER_0_14_3
*723 FILLER_0_14_306
*724 FILLER_0_14_309
*725 FILLER_0_14_321
*726 FILLER_0_14_333
*727 FILLER_0_14_41
*728 FILLER_0_14_53
*729 FILLER_0_14_65
*730 FILLER_0_14_77
*731 FILLER_0_14_83
*732 FILLER_0_14_85
*733 FILLER_0_14_97
*734 FILLER_0_15_105
*735 FILLER_0_15_111
*736 FILLER_0_15_113
*737 FILLER_0_15_125
*738 FILLER_0_15_137
*739 FILLER_0_15_145
*740 FILLER_0_15_15
*741 FILLER_0_15_167
*742 FILLER_0_15_175
*743 FILLER_0_15_179
*744 FILLER_0_15_211
*745 FILLER_0_15_219
*746 FILLER_0_15_225
*747 FILLER_0_15_253
*748 FILLER_0_15_27
*749 FILLER_0_15_291
*750 FILLER_0_15_3
*751 FILLER_0_15_303
*752 FILLER_0_15_315
*753 FILLER_0_15_327
*754 FILLER_0_15_39
*755 FILLER_0_15_51
*756 FILLER_0_15_55
*757 FILLER_0_15_57
*758 FILLER_0_15_69
*759 FILLER_0_15_81
*760 FILLER_0_15_93
*761 FILLER_0_16_109
*762 FILLER_0_16_121
*763 FILLER_0_16_133
*764 FILLER_0_16_139
*765 FILLER_0_16_141
*766 FILLER_0_16_149
*767 FILLER_0_16_15
*768 FILLER_0_16_168
*769 FILLER_0_16_172
*770 FILLER_0_16_193
*771 FILLER_0_16_215
*772 FILLER_0_16_249
*773 FILLER_0_16_253
*774 FILLER_0_16_259
*775 FILLER_0_16_27
*776 FILLER_0_16_281
*777 FILLER_0_16_29
*778 FILLER_0_16_293
*779 FILLER_0_16_3
*780 FILLER_0_16_305
*781 FILLER_0_16_309
*782 FILLER_0_16_321
*783 FILLER_0_16_333
*784 FILLER_0_16_41
*785 FILLER_0_16_53
*786 FILLER_0_16_65
*787 FILLER_0_16_77
*788 FILLER_0_16_83
*789 FILLER_0_16_85
*790 FILLER_0_16_97
*791 FILLER_0_17_105
*792 FILLER_0_17_111
*793 FILLER_0_17_113
*794 FILLER_0_17_125
*795 FILLER_0_17_137
*796 FILLER_0_17_145
*797 FILLER_0_17_15
*798 FILLER_0_17_185
*799 FILLER_0_17_193
*800 FILLER_0_17_209
*801 FILLER_0_17_221
*802 FILLER_0_17_225
*803 FILLER_0_17_233
*804 FILLER_0_17_245
*805 FILLER_0_17_257
*806 FILLER_0_17_265
*807 FILLER_0_17_269
*808 FILLER_0_17_27
*809 FILLER_0_17_277
*810 FILLER_0_17_281
*811 FILLER_0_17_293
*812 FILLER_0_17_3
*813 FILLER_0_17_305
*814 FILLER_0_17_317
*815 FILLER_0_17_329
*816 FILLER_0_17_39
*817 FILLER_0_17_51
*818 FILLER_0_17_55
*819 FILLER_0_17_57
*820 FILLER_0_17_69
*821 FILLER_0_17_81
*822 FILLER_0_17_93
*823 FILLER_0_18_109
*824 FILLER_0_18_121
*825 FILLER_0_18_133
*826 FILLER_0_18_139
*827 FILLER_0_18_141
*828 FILLER_0_18_15
*829 FILLER_0_18_152
*830 FILLER_0_18_180
*831 FILLER_0_18_192
*832 FILLER_0_18_197
*833 FILLER_0_18_209
*834 FILLER_0_18_215
*835 FILLER_0_18_238
*836 FILLER_0_18_250
*837 FILLER_0_18_253
*838 FILLER_0_18_265
*839 FILLER_0_18_27
*840 FILLER_0_18_29
*841 FILLER_0_18_3
*842 FILLER_0_18_312
*843 FILLER_0_18_323
*844 FILLER_0_18_41
*845 FILLER_0_18_53
*846 FILLER_0_18_65
*847 FILLER_0_18_77
*848 FILLER_0_18_83
*849 FILLER_0_18_85
*850 FILLER_0_18_97
*851 FILLER_0_19_105
*852 FILLER_0_19_111
*853 FILLER_0_19_113
*854 FILLER_0_19_125
*855 FILLER_0_19_137
*856 FILLER_0_19_149
*857 FILLER_0_19_15
*858 FILLER_0_19_160
*859 FILLER_0_19_169
*860 FILLER_0_19_181
*861 FILLER_0_19_215
*862 FILLER_0_19_223
*863 FILLER_0_19_225
*864 FILLER_0_19_247
*865 FILLER_0_19_255
*866 FILLER_0_19_27
*867 FILLER_0_19_279
*868 FILLER_0_19_281
*869 FILLER_0_19_3
*870 FILLER_0_19_327
*871 FILLER_0_19_39
*872 FILLER_0_19_51
*873 FILLER_0_19_55
*874 FILLER_0_19_57
*875 FILLER_0_19_69
*876 FILLER_0_19_81
*877 FILLER_0_19_93
*878 FILLER_0_1_105
*879 FILLER_0_1_111
*880 FILLER_0_1_113
*881 FILLER_0_1_125
*882 FILLER_0_1_137
*883 FILLER_0_1_149
*884 FILLER_0_1_15
*885 FILLER_0_1_161
*886 FILLER_0_1_167
*887 FILLER_0_1_169
*888 FILLER_0_1_181
*889 FILLER_0_1_193
*890 FILLER_0_1_205
*891 FILLER_0_1_217
*892 FILLER_0_1_223
*893 FILLER_0_1_225
*894 FILLER_0_1_237
*895 FILLER_0_1_249
*896 FILLER_0_1_261
*897 FILLER_0_1_27
*898 FILLER_0_1_273
*899 FILLER_0_1_279
*900 FILLER_0_1_281
*901 FILLER_0_1_293
*902 FILLER_0_1_3
*903 FILLER_0_1_305
*904 FILLER_0_1_317
*905 FILLER_0_1_329
*906 FILLER_0_1_39
*907 FILLER_0_1_51
*908 FILLER_0_1_55
*909 FILLER_0_1_57
*910 FILLER_0_1_69
*911 FILLER_0_1_81
*912 FILLER_0_1_93
*913 FILLER_0_20_109
*914 FILLER_0_20_121
*915 FILLER_0_20_133
*916 FILLER_0_20_139
*917 FILLER_0_20_141
*918 FILLER_0_20_15
*919 FILLER_0_20_158
*920 FILLER_0_20_170
*921 FILLER_0_20_194
*922 FILLER_0_20_197
*923 FILLER_0_20_226
*924 FILLER_0_20_239
*925 FILLER_0_20_251
*926 FILLER_0_20_253
*927 FILLER_0_20_27
*928 FILLER_0_20_276
*929 FILLER_0_20_29
*930 FILLER_0_20_3
*931 FILLER_0_20_329
*932 FILLER_0_20_41
*933 FILLER_0_20_53
*934 FILLER_0_20_65
*935 FILLER_0_20_77
*936 FILLER_0_20_83
*937 FILLER_0_20_85
*938 FILLER_0_20_97
*939 FILLER_0_21_111
*940 FILLER_0_21_113
*941 FILLER_0_21_121
*942 FILLER_0_21_143
*943 FILLER_0_21_15
*944 FILLER_0_21_167
*945 FILLER_0_21_169
*946 FILLER_0_21_183
*947 FILLER_0_21_196
*948 FILLER_0_21_201
*949 FILLER_0_21_221
*950 FILLER_0_21_225
*951 FILLER_0_21_267
*952 FILLER_0_21_27
*953 FILLER_0_21_279
*954 FILLER_0_21_3
*955 FILLER_0_21_301
*956 FILLER_0_21_318
*957 FILLER_0_21_322
*958 FILLER_0_21_331
*959 FILLER_0_21_39
*960 FILLER_0_21_51
*961 FILLER_0_21_55
*962 FILLER_0_21_57
*963 FILLER_0_21_63
*964 FILLER_0_21_89
*965 FILLER_0_21_96
*966 FILLER_0_22_141
*967 FILLER_0_22_145
*968 FILLER_0_22_15
*969 FILLER_0_22_171
*970 FILLER_0_22_189
*971 FILLER_0_22_195
*972 FILLER_0_22_197
*973 FILLER_0_22_205
*974 FILLER_0_22_211
*975 FILLER_0_22_223
*976 FILLER_0_22_227
*977 FILLER_0_22_251
*978 FILLER_0_22_27
*979 FILLER_0_22_275
*980 FILLER_0_22_287
*981 FILLER_0_22_29
*982 FILLER_0_22_295
*983 FILLER_0_22_3
*984 FILLER_0_22_304
*985 FILLER_0_22_320
*986 FILLER_0_22_332
*987 FILLER_0_22_41
*988 FILLER_0_22_53
*989 FILLER_0_22_61
*990 FILLER_0_22_82
*991 FILLER_0_22_85
*992 FILLER_0_23_140
*993 FILLER_0_23_148
*994 FILLER_0_23_15
*995 FILLER_0_23_177
*996 FILLER_0_23_185
*997 FILLER_0_23_191
*998 FILLER_0_23_203
*999 FILLER_0_23_209
*1000 FILLER_0_23_216
*1001 FILLER_0_23_244
*1002 FILLER_0_23_265
*1003 FILLER_0_23_27
*1004 FILLER_0_23_278
*1005 FILLER_0_23_3
*1006 FILLER_0_23_325
*1007 FILLER_0_23_333
*1008 FILLER_0_23_39
*1009 FILLER_0_23_51
*1010 FILLER_0_23_55
*1011 FILLER_0_23_57
*1012 FILLER_0_23_65
*1013 FILLER_0_23_88
*1014 FILLER_0_23_92
*1015 FILLER_0_24_131
*1016 FILLER_0_24_139
*1017 FILLER_0_24_141
*1018 FILLER_0_24_147
*1019 FILLER_0_24_15
*1020 FILLER_0_24_172
*1021 FILLER_0_24_224
*1022 FILLER_0_24_249
*1023 FILLER_0_24_253
*1024 FILLER_0_24_27
*1025 FILLER_0_24_29
*1026 FILLER_0_24_3
*1027 FILLER_0_24_41
*1028 FILLER_0_24_53
*1029 FILLER_0_24_65
*1030 FILLER_0_24_80
*1031 FILLER_0_24_85
*1032 FILLER_0_24_93
*1033 FILLER_0_25_103
*1034 FILLER_0_25_121
*1035 FILLER_0_25_127
*1036 FILLER_0_25_131
*1037 FILLER_0_25_140
*1038 FILLER_0_25_15
*1039 FILLER_0_25_164
*1040 FILLER_0_25_187
*1041 FILLER_0_25_222
*1042 FILLER_0_25_230
*1043 FILLER_0_25_242
*1044 FILLER_0_25_254
*1045 FILLER_0_25_265
*1046 FILLER_0_25_27
*1047 FILLER_0_25_272
*1048 FILLER_0_25_289
*1049 FILLER_0_25_297
*1050 FILLER_0_25_3
*1051 FILLER_0_25_326
*1052 FILLER_0_25_334
*1053 FILLER_0_25_39
*1054 FILLER_0_25_51
*1055 FILLER_0_25_55
*1056 FILLER_0_25_57
*1057 FILLER_0_25_69
*1058 FILLER_0_25_75
*1059 FILLER_0_25_84
*1060 FILLER_0_26_119
*1061 FILLER_0_26_137
*1062 FILLER_0_26_15
*1063 FILLER_0_26_163
*1064 FILLER_0_26_178
*1065 FILLER_0_26_197
*1066 FILLER_0_26_206
*1067 FILLER_0_26_235
*1068 FILLER_0_26_247
*1069 FILLER_0_26_251
*1070 FILLER_0_26_27
*1071 FILLER_0_26_277
*1072 FILLER_0_26_289
*1073 FILLER_0_26_29
*1074 FILLER_0_26_3
*1075 FILLER_0_26_301
*1076 FILLER_0_26_307
*1077 FILLER_0_26_309
*1078 FILLER_0_26_322
*1079 FILLER_0_26_334
*1080 FILLER_0_26_41
*1081 FILLER_0_26_53
*1082 FILLER_0_26_77
*1083 FILLER_0_26_83
*1084 FILLER_0_27_101
*1085 FILLER_0_27_109
*1086 FILLER_0_27_113
*1087 FILLER_0_27_125
*1088 FILLER_0_27_149
*1089 FILLER_0_27_15
*1090 FILLER_0_27_157
*1091 FILLER_0_27_165
*1092 FILLER_0_27_169
*1093 FILLER_0_27_177
*1094 FILLER_0_27_181
*1095 FILLER_0_27_187
*1096 FILLER_0_27_199
*1097 FILLER_0_27_211
*1098 FILLER_0_27_241
*1099 FILLER_0_27_245
*1100 FILLER_0_27_27
*1101 FILLER_0_27_281
*1102 FILLER_0_27_293
*1103 FILLER_0_27_3
*1104 FILLER_0_27_332
*1105 FILLER_0_27_39
*1106 FILLER_0_27_51
*1107 FILLER_0_27_55
*1108 FILLER_0_27_57
*1109 FILLER_0_27_93
*1110 FILLER_0_28_122
*1111 FILLER_0_28_133
*1112 FILLER_0_28_139
*1113 FILLER_0_28_15
*1114 FILLER_0_28_153
*1115 FILLER_0_28_157
*1116 FILLER_0_28_172
*1117 FILLER_0_28_195
*1118 FILLER_0_28_205
*1119 FILLER_0_28_217
*1120 FILLER_0_28_225
*1121 FILLER_0_28_237
*1122 FILLER_0_28_249
*1123 FILLER_0_28_253
*1124 FILLER_0_28_27
*1125 FILLER_0_28_283
*1126 FILLER_0_28_29
*1127 FILLER_0_28_292
*1128 FILLER_0_28_3
*1129 FILLER_0_28_306
*1130 FILLER_0_28_324
*1131 FILLER_0_28_332
*1132 FILLER_0_28_41
*1133 FILLER_0_28_53
*1134 FILLER_0_28_65
*1135 FILLER_0_28_85
*1136 FILLER_0_29_100
*1137 FILLER_0_29_113
*1138 FILLER_0_29_126
*1139 FILLER_0_29_134
*1140 FILLER_0_29_141
*1141 FILLER_0_29_145
*1142 FILLER_0_29_15
*1143 FILLER_0_29_161
*1144 FILLER_0_29_167
*1145 FILLER_0_29_169
*1146 FILLER_0_29_211
*1147 FILLER_0_29_219
*1148 FILLER_0_29_242
*1149 FILLER_0_29_27
*1150 FILLER_0_29_273
*1151 FILLER_0_29_279
*1152 FILLER_0_29_281
*1153 FILLER_0_29_285
*1154 FILLER_0_29_3
*1155 FILLER_0_29_312
*1156 FILLER_0_29_331
*1157 FILLER_0_29_39
*1158 FILLER_0_29_51
*1159 FILLER_0_29_55
*1160 FILLER_0_29_57
*1161 FILLER_0_29_69
*1162 FILLER_0_29_77
*1163 FILLER_0_29_85
*1164 FILLER_0_29_91
*1165 FILLER_0_2_109
*1166 FILLER_0_2_121
*1167 FILLER_0_2_133
*1168 FILLER_0_2_139
*1169 FILLER_0_2_141
*1170 FILLER_0_2_15
*1171 FILLER_0_2_153
*1172 FILLER_0_2_165
*1173 FILLER_0_2_177
*1174 FILLER_0_2_189
*1175 FILLER_0_2_195
*1176 FILLER_0_2_197
*1177 FILLER_0_2_209
*1178 FILLER_0_2_221
*1179 FILLER_0_2_233
*1180 FILLER_0_2_245
*1181 FILLER_0_2_251
*1182 FILLER_0_2_253
*1183 FILLER_0_2_265
*1184 FILLER_0_2_27
*1185 FILLER_0_2_277
*1186 FILLER_0_2_289
*1187 FILLER_0_2_29
*1188 FILLER_0_2_3
*1189 FILLER_0_2_301
*1190 FILLER_0_2_307
*1191 FILLER_0_2_309
*1192 FILLER_0_2_321
*1193 FILLER_0_2_333
*1194 FILLER_0_2_41
*1195 FILLER_0_2_53
*1196 FILLER_0_2_65
*1197 FILLER_0_2_77
*1198 FILLER_0_2_83
*1199 FILLER_0_2_85
*1200 FILLER_0_2_97
*1201 FILLER_0_30_102
*1202 FILLER_0_30_108
*1203 FILLER_0_30_129
*1204 FILLER_0_30_137
*1205 FILLER_0_30_141
*1206 FILLER_0_30_15
*1207 FILLER_0_30_195
*1208 FILLER_0_30_200
*1209 FILLER_0_30_251
*1210 FILLER_0_30_253
*1211 FILLER_0_30_263
*1212 FILLER_0_30_27
*1213 FILLER_0_30_280
*1214 FILLER_0_30_29
*1215 FILLER_0_30_3
*1216 FILLER_0_30_307
*1217 FILLER_0_30_326
*1218 FILLER_0_30_334
*1219 FILLER_0_30_41
*1220 FILLER_0_30_53
*1221 FILLER_0_30_61
*1222 FILLER_0_30_80
*1223 FILLER_0_31_103
*1224 FILLER_0_31_111
*1225 FILLER_0_31_129
*1226 FILLER_0_31_141
*1227 FILLER_0_31_147
*1228 FILLER_0_31_15
*1229 FILLER_0_31_202
*1230 FILLER_0_31_206
*1231 FILLER_0_31_212
*1232 FILLER_0_31_218
*1233 FILLER_0_31_225
*1234 FILLER_0_31_257
*1235 FILLER_0_31_27
*1236 FILLER_0_31_3
*1237 FILLER_0_31_301
*1238 FILLER_0_31_333
*1239 FILLER_0_31_39
*1240 FILLER_0_31_51
*1241 FILLER_0_31_55
*1242 FILLER_0_31_57
*1243 FILLER_0_31_81
*1244 FILLER_0_32_103
*1245 FILLER_0_32_15
*1246 FILLER_0_32_194
*1247 FILLER_0_32_200
*1248 FILLER_0_32_208
*1249 FILLER_0_32_230
*1250 FILLER_0_32_250
*1251 FILLER_0_32_27
*1252 FILLER_0_32_283
*1253 FILLER_0_32_29
*1254 FILLER_0_32_295
*1255 FILLER_0_32_3
*1256 FILLER_0_32_309
*1257 FILLER_0_32_314
*1258 FILLER_0_32_328
*1259 FILLER_0_32_334
*1260 FILLER_0_32_41
*1261 FILLER_0_32_53
*1262 FILLER_0_32_83
*1263 FILLER_0_33_100
*1264 FILLER_0_33_116
*1265 FILLER_0_33_135
*1266 FILLER_0_33_15
*1267 FILLER_0_33_169
*1268 FILLER_0_33_181
*1269 FILLER_0_33_193
*1270 FILLER_0_33_205
*1271 FILLER_0_33_211
*1272 FILLER_0_33_222
*1273 FILLER_0_33_234
*1274 FILLER_0_33_251
*1275 FILLER_0_33_257
*1276 FILLER_0_33_268
*1277 FILLER_0_33_27
*1278 FILLER_0_33_279
*1279 FILLER_0_33_281
*1280 FILLER_0_33_293
*1281 FILLER_0_33_3
*1282 FILLER_0_33_301
*1283 FILLER_0_33_323
*1284 FILLER_0_33_39
*1285 FILLER_0_33_51
*1286 FILLER_0_33_55
*1287 FILLER_0_33_57
*1288 FILLER_0_33_65
*1289 FILLER_0_34_102
*1290 FILLER_0_34_110
*1291 FILLER_0_34_122
*1292 FILLER_0_34_139
*1293 FILLER_0_34_15
*1294 FILLER_0_34_153
*1295 FILLER_0_34_161
*1296 FILLER_0_34_175
*1297 FILLER_0_34_187
*1298 FILLER_0_34_195
*1299 FILLER_0_34_197
*1300 FILLER_0_34_214
*1301 FILLER_0_34_226
*1302 FILLER_0_34_238
*1303 FILLER_0_34_250
*1304 FILLER_0_34_253
*1305 FILLER_0_34_259
*1306 FILLER_0_34_264
*1307 FILLER_0_34_27
*1308 FILLER_0_34_270
*1309 FILLER_0_34_278
*1310 FILLER_0_34_29
*1311 FILLER_0_34_290
*1312 FILLER_0_34_3
*1313 FILLER_0_34_301
*1314 FILLER_0_34_307
*1315 FILLER_0_34_314
*1316 FILLER_0_34_326
*1317 FILLER_0_34_334
*1318 FILLER_0_34_41
*1319 FILLER_0_34_53
*1320 FILLER_0_34_65
*1321 FILLER_0_34_77
*1322 FILLER_0_34_83
*1323 FILLER_0_35_104
*1324 FILLER_0_35_108
*1325 FILLER_0_35_129
*1326 FILLER_0_35_146
*1327 FILLER_0_35_15
*1328 FILLER_0_35_185
*1329 FILLER_0_35_191
*1330 FILLER_0_35_197
*1331 FILLER_0_35_222
*1332 FILLER_0_35_241
*1333 FILLER_0_35_251
*1334 FILLER_0_35_266
*1335 FILLER_0_35_27
*1336 FILLER_0_35_278
*1337 FILLER_0_35_296
*1338 FILLER_0_35_3
*1339 FILLER_0_35_304
*1340 FILLER_0_35_313
*1341 FILLER_0_35_331
*1342 FILLER_0_35_39
*1343 FILLER_0_35_51
*1344 FILLER_0_35_55
*1345 FILLER_0_35_57
*1346 FILLER_0_35_69
*1347 FILLER_0_35_77
*1348 FILLER_0_36_101
*1349 FILLER_0_36_15
*1350 FILLER_0_36_153
*1351 FILLER_0_36_178
*1352 FILLER_0_36_186
*1353 FILLER_0_36_217
*1354 FILLER_0_36_234
*1355 FILLER_0_36_251
*1356 FILLER_0_36_258
*1357 FILLER_0_36_27
*1358 FILLER_0_36_29
*1359 FILLER_0_36_291
*1360 FILLER_0_36_3
*1361 FILLER_0_36_333
*1362 FILLER_0_36_41
*1363 FILLER_0_36_53
*1364 FILLER_0_36_65
*1365 FILLER_0_36_77
*1366 FILLER_0_37_15
*1367 FILLER_0_37_154
*1368 FILLER_0_37_160
*1369 FILLER_0_37_177
*1370 FILLER_0_37_215
*1371 FILLER_0_37_223
*1372 FILLER_0_37_252
*1373 FILLER_0_37_264
*1374 FILLER_0_37_27
*1375 FILLER_0_37_275
*1376 FILLER_0_37_279
*1377 FILLER_0_37_286
*1378 FILLER_0_37_296
*1379 FILLER_0_37_3
*1380 FILLER_0_37_310
*1381 FILLER_0_37_328
*1382 FILLER_0_37_39
*1383 FILLER_0_37_51
*1384 FILLER_0_37_55
*1385 FILLER_0_37_57
*1386 FILLER_0_37_69
*1387 FILLER_0_37_81
*1388 FILLER_0_37_85
*1389 FILLER_0_38_10
*1390 FILLER_0_38_110
*1391 FILLER_0_38_113
*1392 FILLER_0_38_118
*1393 FILLER_0_38_122
*1394 FILLER_0_38_126
*1395 FILLER_0_38_130
*1396 FILLER_0_38_134
*1397 FILLER_0_38_14
*1398 FILLER_0_38_152
*1399 FILLER_0_38_160
*1400 FILLER_0_38_166
*1401 FILLER_0_38_178
*1402 FILLER_0_38_18
*1403 FILLER_0_38_182
*1404 FILLER_0_38_186
*1405 FILLER_0_38_190
*1406 FILLER_0_38_197
*1407 FILLER_0_38_209
*1408 FILLER_0_38_22
*1409 FILLER_0_38_221
*1410 FILLER_0_38_225
*1411 FILLER_0_38_239
*1412 FILLER_0_38_251
*1413 FILLER_0_38_253
*1414 FILLER_0_38_262
*1415 FILLER_0_38_266
*1416 FILLER_0_38_270
*1417 FILLER_0_38_274
*1418 FILLER_0_38_278
*1419 FILLER_0_38_281
*1420 FILLER_0_38_286
*1421 FILLER_0_38_290
*1422 FILLER_0_38_294
*1423 FILLER_0_38_298
*1424 FILLER_0_38_302
*1425 FILLER_0_38_312
*1426 FILLER_0_38_318
*1427 FILLER_0_38_32
*1428 FILLER_0_38_333
*1429 FILLER_0_38_38
*1430 FILLER_0_38_42
*1431 FILLER_0_38_46
*1432 FILLER_0_38_50
*1433 FILLER_0_38_54
*1434 FILLER_0_38_57
*1435 FILLER_0_38_6
*1436 FILLER_0_38_62
*1437 FILLER_0_38_66
*1438 FILLER_0_38_70
*1439 FILLER_0_38_74
*1440 FILLER_0_38_78
*1441 FILLER_0_38_88
*1442 FILLER_0_38_94
*1443 FILLER_0_3_105
*1444 FILLER_0_3_111
*1445 FILLER_0_3_113
*1446 FILLER_0_3_125
*1447 FILLER_0_3_137
*1448 FILLER_0_3_149
*1449 FILLER_0_3_15
*1450 FILLER_0_3_161
*1451 FILLER_0_3_167
*1452 FILLER_0_3_169
*1453 FILLER_0_3_181
*1454 FILLER_0_3_193
*1455 FILLER_0_3_205
*1456 FILLER_0_3_217
*1457 FILLER_0_3_223
*1458 FILLER_0_3_225
*1459 FILLER_0_3_237
*1460 FILLER_0_3_249
*1461 FILLER_0_3_261
*1462 FILLER_0_3_27
*1463 FILLER_0_3_273
*1464 FILLER_0_3_279
*1465 FILLER_0_3_281
*1466 FILLER_0_3_293
*1467 FILLER_0_3_3
*1468 FILLER_0_3_305
*1469 FILLER_0_3_317
*1470 FILLER_0_3_329
*1471 FILLER_0_3_39
*1472 FILLER_0_3_51
*1473 FILLER_0_3_55
*1474 FILLER_0_3_57
*1475 FILLER_0_3_69
*1476 FILLER_0_3_81
*1477 FILLER_0_3_93
*1478 FILLER_0_4_109
*1479 FILLER_0_4_121
*1480 FILLER_0_4_133
*1481 FILLER_0_4_139
*1482 FILLER_0_4_141
*1483 FILLER_0_4_15
*1484 FILLER_0_4_153
*1485 FILLER_0_4_165
*1486 FILLER_0_4_177
*1487 FILLER_0_4_189
*1488 FILLER_0_4_195
*1489 FILLER_0_4_197
*1490 FILLER_0_4_209
*1491 FILLER_0_4_221
*1492 FILLER_0_4_233
*1493 FILLER_0_4_245
*1494 FILLER_0_4_251
*1495 FILLER_0_4_253
*1496 FILLER_0_4_265
*1497 FILLER_0_4_27
*1498 FILLER_0_4_277
*1499 FILLER_0_4_289
*1500 FILLER_0_4_29
*1501 FILLER_0_4_3
*1502 FILLER_0_4_301
*1503 FILLER_0_4_307
*1504 FILLER_0_4_309
*1505 FILLER_0_4_321
*1506 FILLER_0_4_333
*1507 FILLER_0_4_41
*1508 FILLER_0_4_53
*1509 FILLER_0_4_65
*1510 FILLER_0_4_77
*1511 FILLER_0_4_83
*1512 FILLER_0_4_85
*1513 FILLER_0_4_97