*SPEF "ieee 1481-1999"
*DESIGN "tt_um_andrewtron3000"
*DATE "03:08:39 Friday April 19, 2024"
*VENDOR "The OpenROAD Project"
*PROGRAM "OpenROAD"
*VERSION "0889970d1790a2617e69f253221b8bd7626e51dc"
*DESIGN_FLOW "NAME_SCOPE LOCAL" "PIN_CAP NONE"
*DIVIDER /
*DELIMITER :
*BUS_DELIMITER []
*T_UNIT 1 NS
*C_UNIT 1 PF
*R_UNIT 1 OHM
*L_UNIT 1 HENRY

*NAME_MAP
*3 clk
*4 ena
*5 rst_n
*6 ui_in[0]
*7 ui_in[1]
*8 ui_in[2]
*9 ui_in[3]
*10 ui_in[4]
*11 ui_in[5]
*12 ui_in[6]
*13 ui_in[7]
*14 uio_in[0]
*15 uio_in[1]
*16 uio_in[2]
*17 uio_in[3]
*18 uio_in[4]
*19 uio_in[5]
*20 uio_in[6]
*21 uio_in[7]
*22 net25
*23 net26
*24 net27
*25 net28
*26 net29
*27 net30
*28 net31
*29 net32
*30 net33
*31 net34
*32 net35
*33 net36
*34 net37
*35 net38
*36 net39
*37 net40
*38 net41
*39 net42
*40 net43
*41 net44
*42 uo_out[4]
*43 net45
*44 net46
*45 net47
*46 _0000_
*47 _0001_
*48 _0002_
*49 _0003_
*50 _0004_
*51 _0005_
*52 _0006_
*53 _0007_
*54 _0008_
*55 _0009_
*56 _0010_
*57 _0011_
*58 _0012_
*59 _0013_
*60 _0014_
*61 _0015_
*62 _0016_
*63 _0017_
*64 _0018_
*65 _0019_
*66 _0020_
*67 _0021_
*68 _0022_
*69 _0023_
*70 _0024_
*71 _0025_
*72 _0026_
*73 _0027_
*74 _0028_
*75 _0029_
*76 _0030_
*77 _0031_
*78 _0032_
*79 _0033_
*80 _0034_
*81 _0035_
*82 _0036_
*83 _0037_
*84 _0038_
*85 _0039_
*86 _0040_
*87 _0041_
*88 _0042_
*89 _0043_
*90 _0044_
*91 _0045_
*92 _0046_
*93 _0047_
*94 _0048_
*95 _0049_
*96 _0050_
*97 _0051_
*98 _0052_
*99 _0053_
*100 _0054_
*101 _0055_
*102 _0056_
*103 _0057_
*104 _0069_
*105 _0070_
*106 _0071_
*107 _0072_
*108 _0073_
*109 _0074_
*110 _0075_
*111 _0076_
*112 _0077_
*113 _0078_
*114 _0079_
*115 _0080_
*116 _0081_
*117 _0082_
*118 _0083_
*119 _0084_
*120 _0085_
*121 _0086_
*122 _0087_
*123 _0088_
*124 _0089_
*125 _0090_
*126 _0091_
*127 _0092_
*128 _0093_
*129 _0094_
*130 _0095_
*131 _0096_
*132 _0097_
*133 _0098_
*134 _0099_
*135 _0100_
*136 _0101_
*137 _0102_
*138 _0103_
*139 _0104_
*140 _0105_
*141 _0106_
*142 _0107_
*143 _0108_
*144 _0109_
*145 _0110_
*146 _0111_
*147 _0112_
*148 _0113_
*149 _0114_
*150 _0115_
*151 _0116_
*152 _0117_
*153 _0118_
*154 _0119_
*155 _0120_
*156 _0121_
*157 _0122_
*158 _0123_
*159 _0124_
*160 _0125_
*161 _0126_
*162 _0127_
*163 _0128_
*164 _0129_
*165 _0130_
*166 _0131_
*167 _0132_
*168 _0133_
*169 _0134_
*170 _0135_
*171 _0136_
*172 _0137_
*173 _0138_
*174 _0139_
*175 _0140_
*176 _0141_
*177 _0142_
*178 _0143_
*179 _0144_
*180 _0145_
*181 _0146_
*182 _0147_
*183 _0148_
*184 _0149_
*185 _0150_
*186 _0151_
*187 _0152_
*188 _0153_
*189 _0154_
*190 _0155_
*191 _0156_
*192 _0157_
*193 _0158_
*194 _0159_
*195 _0160_
*196 _0161_
*197 _0162_
*198 _0163_
*199 _0164_
*200 _0165_
*201 _0166_
*202 _0167_
*203 _0168_
*204 _0169_
*205 _0170_
*206 _0171_
*207 _0172_
*208 _0173_
*209 _0174_
*210 _0175_
*211 _0176_
*212 _0177_
*213 _0178_
*214 _0179_
*215 _0180_
*216 _0181_
*217 _0182_
*218 _0183_
*219 _0184_
*220 _0185_
*221 _0186_
*222 _0187_
*223 _0188_
*224 _0189_
*225 _0190_
*226 _0191_
*227 _0192_
*228 _0193_
*229 _0194_
*230 _0195_
*231 _0196_
*232 _0197_
*233 _0198_
*234 _0199_
*235 _0200_
*236 _0201_
*237 _0202_
*238 _0203_
*239 _0204_
*240 _0205_
*241 _0206_
*242 _0207_
*243 _0208_
*244 _0209_
*245 _0210_
*246 _0211_
*247 _0212_
*248 _0213_
*249 _0214_
*250 _0215_
*251 _0216_
*252 _0217_
*253 _0218_
*254 _0219_
*255 _0220_
*256 _0221_
*257 _0222_
*258 _0223_
*259 _0224_
*260 _0225_
*261 _0226_
*262 _0227_
*263 _0228_
*264 _0229_
*265 _0230_
*266 _0231_
*267 _0232_
*268 _0233_
*269 _0234_
*270 _0235_
*271 _0236_
*272 _0237_
*273 _0238_
*274 _0239_
*275 _0240_
*276 _0241_
*277 _0242_
*278 _0243_
*279 _0244_
*280 _0245_
*281 _0246_
*282 _0247_
*283 _0248_
*284 _0249_
*285 _0250_
*286 _0251_
*287 _0252_
*288 _0253_
*289 _0254_
*290 _0255_
*291 _0256_
*292 _0257_
*293 _0258_
*294 _0259_
*295 _0260_
*296 _0261_
*297 _0262_
*298 _0263_
*299 _0264_
*300 _0265_
*301 _0266_
*302 _0267_
*303 _0268_
*304 _0269_
*305 _0270_
*306 _0271_
*307 _0272_
*308 _0273_
*309 _0274_
*310 _0275_
*311 _0276_
*312 _0277_
*313 _0278_
*314 _0279_
*315 _0280_
*316 _0281_
*317 _0282_
*318 _0283_
*319 _0284_
*320 _0285_
*321 _0286_
*322 _0287_
*323 _0288_
*324 _0289_
*325 _0290_
*326 _0291_
*327 _0292_
*328 _0293_
*329 _0294_
*330 _0295_
*331 _0296_
*332 _0297_
*333 _0298_
*334 _0299_
*335 _0300_
*336 _0301_
*337 _0302_
*338 _0303_
*339 _0304_
*340 _0305_
*341 _0306_
*342 _0307_
*343 _0308_
*344 _0309_
*345 _0310_
*346 _0311_
*347 _0312_
*348 _0313_
*349 _0314_
*350 _0315_
*351 _0316_
*352 _0317_
*353 _0318_
*354 _0319_
*355 _0320_
*356 _0321_
*357 _0322_
*358 _0323_
*359 _0324_
*360 _0325_
*361 _0326_
*362 _0327_
*363 _0328_
*364 _0329_
*365 _0330_
*366 _0331_
*367 _0332_
*368 _0333_
*369 _0334_
*370 _0335_
*371 _0336_
*372 _0337_
*373 _0338_
*374 _0339_
*375 _0340_
*376 _0341_
*377 _0342_
*378 _0343_
*379 _0344_
*380 _0345_
*381 _0346_
*382 _0347_
*383 _0348_
*384 _0349_
*385 _0350_
*386 _0351_
*387 _0352_
*388 _0353_
*389 _0354_
*390 _0355_
*391 _0356_
*392 _0357_
*393 _0358_
*394 _0359_
*395 _0360_
*396 _0361_
*397 _0362_
*398 _0363_
*399 _0364_
*400 _0365_
*401 _0366_
*402 _0367_
*403 _0368_
*404 _0369_
*405 _0370_
*406 _0371_
*407 _0372_
*408 _0373_
*409 _0374_
*410 _0375_
*411 _0376_
*412 _0377_
*413 _0378_
*414 _0379_
*415 _0380_
*416 _0381_
*417 _0382_
*418 _0383_
*419 _0384_
*420 _0385_
*421 _0386_
*422 _0387_
*423 _0388_
*424 _0389_
*425 _0390_
*426 _0391_
*427 _0392_
*428 _0393_
*429 _0394_
*430 _0395_
*431 _0396_
*432 _0397_
*433 _0398_
*434 _0399_
*435 _0400_
*436 _0401_
*437 _0402_
*438 _0403_
*439 _0404_
*440 _0405_
*441 _0406_
*442 _0407_
*443 _0408_
*444 _0409_
*445 _0410_
*446 _0411_
*447 _0412_
*448 _0413_
*449 _0414_
*450 _0415_
*451 _0416_
*452 _0417_
*453 _0418_
*454 _0419_
*455 _0420_
*456 _0421_
*457 _0422_
*458 _0423_
*459 _0424_
*460 _0425_
*461 _0426_
*462 _0427_
*463 _0428_
*464 _0429_
*465 _0430_
*466 _0431_
*467 _0432_
*468 _0433_
*469 _0434_
*470 _0435_
*471 _0436_
*472 _0437_
*473 _0438_
*474 _0439_
*475 _0440_
*476 _0441_
*477 _0442_
*478 _0443_
*479 _0444_
*480 _0445_
*481 _0446_
*482 _0447_
*483 _0448_
*484 _0449_
*485 _0450_
*486 _0451_
*487 _0452_
*488 _0453_
*489 _0454_
*490 _0455_
*491 _0456_
*492 _0457_
*493 _0458_
*494 _0459_
*495 _0460_
*496 _0461_
*497 _0462_
*498 _0463_
*499 _0464_
*500 _0465_
*501 _0466_
*502 _0467_
*503 _0468_
*504 _0469_
*505 _0470_
*506 _0471_
*507 _0472_
*508 _0473_
*509 _0474_
*510 _0475_
*511 _0476_
*512 _0477_
*513 _0478_
*514 _0479_
*515 _0480_
*516 _0481_
*517 _0482_
*518 _0483_
*519 _0484_
*520 _0485_
*521 _0486_
*522 _0487_
*523 _0488_
*524 _0489_
*525 _0490_
*526 _0491_
*527 _0492_
*528 _0493_
*529 _0494_
*530 _0495_
*531 _0496_
*532 _0497_
*533 _0498_
*534 _0499_
*535 _0500_
*536 _0501_
*537 _0502_
*538 _0503_
*539 _0504_
*540 _0505_
*541 _0506_
*542 _0507_
*543 _0508_
*544 _0509_
*545 _0510_
*546 _0511_
*547 _0512_
*548 _0513_
*549 _0514_
*550 _0515_
*551 _0516_
*552 _0517_
*553 _0518_
*554 _0519_
*555 _0520_
*556 _0521_
*557 _0522_
*558 _0523_
*559 _0524_
*560 _0525_
*561 _0526_
*562 _0527_
*563 _0528_
*564 _0529_
*565 _0530_
*566 _0531_
*567 _0532_
*568 _0533_
*569 _0534_
*570 _0535_
*571 _0536_
*572 _0537_
*573 _0538_
*574 _0539_
*575 _0540_
*576 _0541_
*577 _0542_
*578 _0543_
*579 _0544_
*580 _0545_
*581 _0546_
*582 _0547_
*583 _0548_
*584 _0549_
*585 _0550_
*586 _0551_
*587 _0552_
*588 _0553_
*589 _0554_
*590 _0555_
*591 _0556_
*592 _0557_
*593 _0558_
*594 _0559_
*595 _0560_
*596 _0561_
*597 _0562_
*598 _0563_
*599 _0564_
*600 _0565_
*601 _0566_
*602 _0567_
*603 _0568_
*604 _0569_
*605 _0570_
*606 _0571_
*607 _0572_
*608 _0573_
*609 _0574_
*610 _0575_
*611 _0576_
*612 _0577_
*613 _0578_
*614 _0579_
*615 _0580_
*616 _0581_
*617 _0582_
*618 _0583_
*619 _0584_
*620 _0585_
*621 _0586_
*622 _0587_
*623 _0588_
*624 _0589_
*625 _0590_
*626 _0591_
*627 _0592_
*628 _0593_
*629 _0594_
*630 _0595_
*631 _0596_
*632 _0597_
*633 _0598_
*634 _0599_
*635 _0600_
*636 _0601_
*637 _0602_
*638 _0603_
*639 _0604_
*640 _0605_
*641 _0606_
*642 _0607_
*643 _0608_
*644 _0609_
*645 _0610_
*646 _0611_
*647 _0612_
*648 _0613_
*649 _0614_
*650 _0615_
*651 _0616_
*652 _0617_
*653 _0618_
*654 _0619_
*655 _0620_
*656 _0621_
*657 _0622_
*658 _0623_
*659 _0624_
*660 _0625_
*661 _0626_
*662 _0627_
*663 _0628_
*664 _0629_
*665 _0630_
*666 _0631_
*667 _0632_
*668 _0633_
*669 _0634_
*670 _0635_
*671 _0636_
*672 _0637_
*673 _0638_
*674 _0639_
*675 _0640_
*676 _0641_
*677 _0642_
*678 _0643_
*679 _0644_
*680 _0645_
*681 _0646_
*682 _0647_
*683 _0648_
*684 _0649_
*685 _0650_
*686 _0651_
*687 _0652_
*688 _0653_
*689 _0654_
*690 _0655_
*691 _0656_
*692 _0657_
*693 _0658_
*694 _0659_
*695 _0660_
*696 _0661_
*697 _0662_
*698 _0663_
*699 _0664_
*700 _0665_
*701 _0666_
*702 _0667_
*703 clknet_0_clk
*704 clknet_4_0_0_clk
*705 clknet_4_10_0_clk
*706 clknet_4_11_0_clk
*707 clknet_4_12_0_clk
*708 clknet_4_13_0_clk
*709 clknet_4_14_0_clk
*710 clknet_4_15_0_clk
*711 clknet_4_1_0_clk
*712 clknet_4_2_0_clk
*713 clknet_4_3_0_clk
*714 clknet_4_4_0_clk
*715 clknet_4_5_0_clk
*716 clknet_4_6_0_clk
*717 clknet_4_7_0_clk
*718 clknet_4_8_0_clk
*719 clknet_4_9_0_clk
*720 net1
*721 net10
*722 net100
*723 net101
*724 net102
*725 net103
*726 net104
*727 net105
*728 net106
*729 net107
*730 net108
*731 net109
*732 net11
*733 net110
*734 net111
*735 net112
*736 net113
*737 net114
*738 net115
*739 net116
*740 net117
*741 net118
*742 net119
*743 net12
*744 net120
*745 net121
*746 net122
*747 net123
*748 net124
*749 net125
*750 net126
*751 net127
*752 net128
*753 net129
*754 net13
*755 net130
*756 net131
*757 net132
*758 net133
*759 net134
*760 net135
*761 net136
*762 net137
*763 net138
*764 net139
*765 net14
*766 net140
*767 net141
*768 net142
*769 net143
*770 net144
*771 net145
*772 net146
*773 net147
*774 net148
*775 net149
*776 net15
*777 net150
*778 net151
*779 net152
*780 net153
*781 net154
*782 net155
*783 net156
*784 net157
*785 net158
*786 net16
*787 net17
*788 net18
*789 net19
*790 net2
*791 net20
*792 net21
*793 net22
*794 net23
*795 net24
*796 net3
*797 net4
*798 net48
*799 net49
*800 net5
*801 net50
*802 net51
*803 net52
*804 net53
*805 net54
*806 net55
*807 net56
*808 net57
*809 net58
*810 net59
*811 net6
*812 net60
*813 net61
*814 net62
*815 net63
*816 net64
*817 net65
*818 net66
*819 net67
*820 net68
*821 net69
*822 net7
*823 net70
*824 net71
*825 net72
*826 net73
*827 net74
*828 net75
*829 net76
*830 net77
*831 net78
*832 net79
*833 net8
*834 net80
*835 net81
*836 net82
*837 net83
*838 net84
*839 net85
*840 net86
*841 net87
*842 net88
*843 net89
*844 net9
*845 net90
*846 net91
*847 net92
*848 net93
*849 net94
*850 net95
*851 net96
*852 net97
*853 net98
*854 net99
*855 rule_30_driver\.RST_N
*856 rule_30_driver\.a\[0\]
*857 rule_30_driver\.a\[1\]
*858 rule_30_driver\.a\[2\]
*859 rule_30_driver\.a\[3\]
*860 rule_30_driver\.a\[4\]
*861 rule_30_driver\.a\[5\]
*862 rule_30_driver\.a\[6\]
*863 rule_30_driver\.a\[7\]
*864 rule_30_driver\.op_mode
*865 rule_30_driver\.rule30\$getResult\[0\]
*866 rule_30_driver\.rule30\$getResult\[1\]
*867 rule_30_driver\.rule30\$getResult\[2\]
*868 rule_30_driver\.rule30\$getResult\[3\]
*869 rule_30_driver\.rule30\$getResult\[4\]
*870 rule_30_driver\.rule30\$getResult\[5\]
*871 rule_30_driver\.rule30\$getResult\[6\]
*872 rule_30_driver\.rule30\$getResult\[7\]
*873 rule_30_driver\.rule30\.MUX_x\$write_1__VAL_2\[0\]
*874 rule_30_driver\.rule30\.MUX_x\$write_1__VAL_2\[10\]
*875 rule_30_driver\.rule30\.MUX_x\$write_1__VAL_2\[11\]
*876 rule_30_driver\.rule30\.MUX_x\$write_1__VAL_2\[12\]
*877 rule_30_driver\.rule30\.MUX_x\$write_1__VAL_2\[13\]
*878 rule_30_driver\.rule30\.MUX_x\$write_1__VAL_2\[14\]
*879 rule_30_driver\.rule30\.MUX_x\$write_1__VAL_2\[15\]
*880 rule_30_driver\.rule30\.MUX_x\$write_1__VAL_2\[16\]
*881 rule_30_driver\.rule30\.MUX_x\$write_1__VAL_2\[17\]
*882 rule_30_driver\.rule30\.MUX_x\$write_1__VAL_2\[18\]
*883 rule_30_driver\.rule30\.MUX_x\$write_1__VAL_2\[19\]
*884 rule_30_driver\.rule30\.MUX_x\$write_1__VAL_2\[1\]
*885 rule_30_driver\.rule30\.MUX_x\$write_1__VAL_2\[20\]
*886 rule_30_driver\.rule30\.MUX_x\$write_1__VAL_2\[21\]
*887 rule_30_driver\.rule30\.MUX_x\$write_1__VAL_2\[22\]
*888 rule_30_driver\.rule30\.MUX_x\$write_1__VAL_2\[23\]
*889 rule_30_driver\.rule30\.MUX_x\$write_1__VAL_2\[2\]
*890 rule_30_driver\.rule30\.MUX_x\$write_1__VAL_2\[32\]
*891 rule_30_driver\.rule30\.MUX_x\$write_1__VAL_2\[33\]
*892 rule_30_driver\.rule30\.MUX_x\$write_1__VAL_2\[34\]
*893 rule_30_driver\.rule30\.MUX_x\$write_1__VAL_2\[35\]
*894 rule_30_driver\.rule30\.MUX_x\$write_1__VAL_2\[36\]
*895 rule_30_driver\.rule30\.MUX_x\$write_1__VAL_2\[37\]
*896 rule_30_driver\.rule30\.MUX_x\$write_1__VAL_2\[38\]
*897 rule_30_driver\.rule30\.MUX_x\$write_1__VAL_2\[39\]
*898 rule_30_driver\.rule30\.MUX_x\$write_1__VAL_2\[3\]
*899 rule_30_driver\.rule30\.MUX_x\$write_1__VAL_2\[40\]
*900 rule_30_driver\.rule30\.MUX_x\$write_1__VAL_2\[41\]
*901 rule_30_driver\.rule30\.MUX_x\$write_1__VAL_2\[42\]
*902 rule_30_driver\.rule30\.MUX_x\$write_1__VAL_2\[43\]
*903 rule_30_driver\.rule30\.MUX_x\$write_1__VAL_2\[44\]
*904 rule_30_driver\.rule30\.MUX_x\$write_1__VAL_2\[45\]
*905 rule_30_driver\.rule30\.MUX_x\$write_1__VAL_2\[46\]
*906 rule_30_driver\.rule30\.MUX_x\$write_1__VAL_2\[47\]
*907 rule_30_driver\.rule30\.MUX_x\$write_1__VAL_2\[48\]
*908 rule_30_driver\.rule30\.MUX_x\$write_1__VAL_2\[49\]
*909 rule_30_driver\.rule30\.MUX_x\$write_1__VAL_2\[4\]
*910 rule_30_driver\.rule30\.MUX_x\$write_1__VAL_2\[50\]
*911 rule_30_driver\.rule30\.MUX_x\$write_1__VAL_2\[51\]
*912 rule_30_driver\.rule30\.MUX_x\$write_1__VAL_2\[52\]
*913 rule_30_driver\.rule30\.MUX_x\$write_1__VAL_2\[53\]
*914 rule_30_driver\.rule30\.MUX_x\$write_1__VAL_2\[54\]
*915 rule_30_driver\.rule30\.MUX_x\$write_1__VAL_2\[55\]
*916 rule_30_driver\.rule30\.MUX_x\$write_1__VAL_2\[5\]
*917 rule_30_driver\.rule30\.MUX_x\$write_1__VAL_2\[6\]
*918 rule_30_driver\.rule30\.MUX_x\$write_1__VAL_2\[7\]
*919 rule_30_driver\.rule30\.MUX_x\$write_1__VAL_2\[8\]
*920 rule_30_driver\.rule30\.MUX_x\$write_1__VAL_2\[9\]
*921 rule_30_driver\.rule30\.busy_flag
*922 rule_30_driver\.rule30\.step_complete
*923 rule_30_driver\.transmit_state\[0\]
*924 rule_30_driver\.transmit_state\[1\]
*925 rule_30_driver\.transmit_state\[2\]
*926 rule_30_driver\.txrx_SOUT
*927 rule_30_driver\.uart_baudGen_rBaudCounter\$Q_OUT\[0\]
*928 rule_30_driver\.uart_baudGen_rBaudCounter\$Q_OUT\[10\]
*929 rule_30_driver\.uart_baudGen_rBaudCounter\$Q_OUT\[11\]
*930 rule_30_driver\.uart_baudGen_rBaudCounter\$Q_OUT\[12\]
*931 rule_30_driver\.uart_baudGen_rBaudCounter\$Q_OUT\[13\]
*932 rule_30_driver\.uart_baudGen_rBaudCounter\$Q_OUT\[14\]
*933 rule_30_driver\.uart_baudGen_rBaudCounter\$Q_OUT\[15\]
*934 rule_30_driver\.uart_baudGen_rBaudCounter\$Q_OUT\[1\]
*935 rule_30_driver\.uart_baudGen_rBaudCounter\$Q_OUT\[2\]
*936 rule_30_driver\.uart_baudGen_rBaudCounter\$Q_OUT\[3\]
*937 rule_30_driver\.uart_baudGen_rBaudCounter\$Q_OUT\[4\]
*938 rule_30_driver\.uart_baudGen_rBaudCounter\$Q_OUT\[5\]
*939 rule_30_driver\.uart_baudGen_rBaudCounter\$Q_OUT\[6\]
*940 rule_30_driver\.uart_baudGen_rBaudCounter\$Q_OUT\[7\]
*941 rule_30_driver\.uart_baudGen_rBaudCounter\$Q_OUT\[8\]
*942 rule_30_driver\.uart_baudGen_rBaudCounter\$Q_OUT\[9\]
*943 rule_30_driver\.uart_fifoXmit\$D_OUT\[0\]
*944 rule_30_driver\.uart_fifoXmit\$D_OUT\[1\]
*945 rule_30_driver\.uart_fifoXmit\$D_OUT\[2\]
*946 rule_30_driver\.uart_fifoXmit\$D_OUT\[3\]
*947 rule_30_driver\.uart_fifoXmit\$D_OUT\[4\]
*948 rule_30_driver\.uart_fifoXmit\$D_OUT\[5\]
*949 rule_30_driver\.uart_fifoXmit\$D_OUT\[6\]
*950 rule_30_driver\.uart_fifoXmit\$D_OUT\[7\]
*951 rule_30_driver\.uart_fifoXmit\$EMPTY_N
*952 rule_30_driver\.uart_fifoXmit\$FULL_N
*953 rule_30_driver\.uart_fifoXmit\.arr\[0\]\[0\]
*954 rule_30_driver\.uart_fifoXmit\.arr\[0\]\[1\]
*955 rule_30_driver\.uart_fifoXmit\.arr\[0\]\[2\]
*956 rule_30_driver\.uart_fifoXmit\.arr\[0\]\[3\]
*957 rule_30_driver\.uart_fifoXmit\.arr\[0\]\[4\]
*958 rule_30_driver\.uart_fifoXmit\.arr\[0\]\[5\]
*959 rule_30_driver\.uart_fifoXmit\.arr\[0\]\[6\]
*960 rule_30_driver\.uart_fifoXmit\.arr\[0\]\[7\]
*961 rule_30_driver\.uart_fifoXmit\.arr\[1\]\[0\]
*962 rule_30_driver\.uart_fifoXmit\.arr\[1\]\[1\]
*963 rule_30_driver\.uart_fifoXmit\.arr\[1\]\[2\]
*964 rule_30_driver\.uart_fifoXmit\.arr\[1\]\[3\]
*965 rule_30_driver\.uart_fifoXmit\.arr\[1\]\[4\]
*966 rule_30_driver\.uart_fifoXmit\.arr\[1\]\[5\]
*967 rule_30_driver\.uart_fifoXmit\.arr\[1\]\[6\]
*968 rule_30_driver\.uart_fifoXmit\.arr\[1\]\[7\]
*969 rule_30_driver\.uart_fifoXmit\.head
*970 rule_30_driver\.uart_fifoXmit\.ring_empty
*971 rule_30_driver\.uart_fifoXmit\.tail
*972 rule_30_driver\.uart_rXmitBitCount\[0\]
*973 rule_30_driver\.uart_rXmitBitCount\[1\]
*974 rule_30_driver\.uart_rXmitBitCount\[2\]
*975 rule_30_driver\.uart_rXmitBitCount\[3\]
*976 rule_30_driver\.uart_rXmitCellCount\[0\]
*977 rule_30_driver\.uart_rXmitCellCount\[1\]
*978 rule_30_driver\.uart_rXmitCellCount\[2\]
*979 rule_30_driver\.uart_rXmitCellCount\[3\]
*980 rule_30_driver\.uart_rXmitState\[0\]
*981 rule_30_driver\.uart_rXmitState\[1\]
*982 rule_30_driver\.uart_rXmitState\[2\]
*983 rule_30_driver\.uart_rXmitState\[3\]
*984 rule_30_driver\.uart_rXmitState\[4\]
*985 rule_30_driver\.uart_rXmitState\[5\]
*986 rule_30_driver\.uart_rXmitState\[6\]
*987 rule_30_driver\.uart_rXmitState\[7\]
*988 rule_30_driver\.uart_vrXmitBuffer_0
*989 rule_30_driver\.uart_vrXmitBuffer_1
*990 rule_30_driver\.uart_vrXmitBuffer_2
*991 rule_30_driver\.uart_vrXmitBuffer_3
*992 rule_30_driver\.uart_vrXmitBuffer_4
*993 rule_30_driver\.uart_vrXmitBuffer_5
*994 rule_30_driver\.uart_vrXmitBuffer_6
*995 rule_30_driver\.uart_vrXmitBuffer_7
*996 rule_30_driver\.xmas_fsm_start_reg
*997 rule_30_driver\.xmas_fsm_start_reg_1
*998 rule_30_driver\.xmas_fsm_state_fired
*999 rule_30_driver\.xmas_fsm_state_mkFSMstate\[0\]
*1000 rule_30_driver\.xmas_fsm_state_mkFSMstate\[10\]
*1001 rule_30_driver\.xmas_fsm_state_mkFSMstate\[11\]
*1002 rule_30_driver\.xmas_fsm_state_mkFSMstate\[12\]
*1003 rule_30_driver\.xmas_fsm_state_mkFSMstate\[13\]
*1004 rule_30_driver\.xmas_fsm_state_mkFSMstate\[14\]
*1005 rule_30_driver\.xmas_fsm_state_mkFSMstate\[15\]
*1006 rule_30_driver\.xmas_fsm_state_mkFSMstate\[16\]
*1007 rule_30_driver\.xmas_fsm_state_mkFSMstate\[17\]
*1008 rule_30_driver\.xmas_fsm_state_mkFSMstate\[18\]
*1009 rule_30_driver\.xmas_fsm_state_mkFSMstate\[19\]
*1010 rule_30_driver\.xmas_fsm_state_mkFSMstate\[1\]
*1011 rule_30_driver\.xmas_fsm_state_mkFSMstate\[20\]
*1012 rule_30_driver\.xmas_fsm_state_mkFSMstate\[21\]
*1013 rule_30_driver\.xmas_fsm_state_mkFSMstate\[22\]
*1014 rule_30_driver\.xmas_fsm_state_mkFSMstate\[23\]
*1015 rule_30_driver\.xmas_fsm_state_mkFSMstate\[24\]
*1016 rule_30_driver\.xmas_fsm_state_mkFSMstate\[25\]
*1017 rule_30_driver\.xmas_fsm_state_mkFSMstate\[2\]
*1018 rule_30_driver\.xmas_fsm_state_mkFSMstate\[3\]
*1019 rule_30_driver\.xmas_fsm_state_mkFSMstate\[4\]
*1020 rule_30_driver\.xmas_fsm_state_mkFSMstate\[5\]
*1021 rule_30_driver\.xmas_fsm_state_mkFSMstate\[6\]
*1022 rule_30_driver\.xmas_fsm_state_mkFSMstate\[7\]
*1023 rule_30_driver\.xmas_fsm_state_mkFSMstate\[8\]
*1024 rule_30_driver\.xmas_fsm_state_mkFSMstate\[9\]
*1025 FILLER_0_0_103
*1026 FILLER_0_0_111
*1027 FILLER_0_0_113
*1028 FILLER_0_0_121
*1029 FILLER_0_0_126
*1030 FILLER_0_0_138
*1031 FILLER_0_0_141
*1032 FILLER_0_0_15
*1033 FILLER_0_0_153
*1034 FILLER_0_0_165
*1035 FILLER_0_0_169
*1036 FILLER_0_0_181
*1037 FILLER_0_0_185
*1038 FILLER_0_0_189
*1039 FILLER_0_0_195
*1040 FILLER_0_0_197
*1041 FILLER_0_0_204
*1042 FILLER_0_0_216
*1043 FILLER_0_0_225
*1044 FILLER_0_0_233
*1045 FILLER_0_0_251
*1046 FILLER_0_0_253
*1047 FILLER_0_0_265
*1048 FILLER_0_0_27
*1049 FILLER_0_0_277
*1050 FILLER_0_0_281
*1051 FILLER_0_0_29
*1052 FILLER_0_0_293
*1053 FILLER_0_0_3
*1054 FILLER_0_0_305
*1055 FILLER_0_0_309
*1056 FILLER_0_0_321
*1057 FILLER_0_0_333
*1058 FILLER_0_0_41
*1059 FILLER_0_0_53
*1060 FILLER_0_0_57
*1061 FILLER_0_0_69
*1062 FILLER_0_0_81
*1063 FILLER_0_0_85
*1064 FILLER_0_0_91
*1065 FILLER_0_10_109
*1066 FILLER_0_10_11
*1067 FILLER_0_10_121
*1068 FILLER_0_10_133
*1069 FILLER_0_10_139
*1070 FILLER_0_10_141
*1071 FILLER_0_10_167
*1072 FILLER_0_10_179
*1073 FILLER_0_10_210
*1074 FILLER_0_10_224
*1075 FILLER_0_10_249
*1076 FILLER_0_10_258
*1077 FILLER_0_10_270
*1078 FILLER_0_10_278
*1079 FILLER_0_10_29
*1080 FILLER_0_10_294
*1081 FILLER_0_10_3
*1082 FILLER_0_10_302
*1083 FILLER_0_10_318
*1084 FILLER_0_10_330
*1085 FILLER_0_10_334
*1086 FILLER_0_10_38
*1087 FILLER_0_10_43
*1088 FILLER_0_10_52
*1089 FILLER_0_10_64
*1090 FILLER_0_10_76
*1091 FILLER_0_10_82
*1092 FILLER_0_10_85
*1093 FILLER_0_10_97
*1094 FILLER_0_11_105
*1095 FILLER_0_11_111
*1096 FILLER_0_11_113
*1097 FILLER_0_11_138
*1098 FILLER_0_11_150
*1099 FILLER_0_11_154
*1100 FILLER_0_11_158
*1101 FILLER_0_11_166
*1102 FILLER_0_11_169
*1103 FILLER_0_11_181
*1104 FILLER_0_11_185
*1105 FILLER_0_11_218
*1106 FILLER_0_11_263
*1107 FILLER_0_11_269
*1108 FILLER_0_11_3
*1109 FILLER_0_11_303
*1110 FILLER_0_11_325
*1111 FILLER_0_11_333
*1112 FILLER_0_11_43
*1113 FILLER_0_11_55
*1114 FILLER_0_11_57
*1115 FILLER_0_11_69
*1116 FILLER_0_11_73
*1117 FILLER_0_11_93
*1118 FILLER_0_12_101
*1119 FILLER_0_12_113
*1120 FILLER_0_12_132
*1121 FILLER_0_12_141
*1122 FILLER_0_12_153
*1123 FILLER_0_12_157
*1124 FILLER_0_12_174
*1125 FILLER_0_12_186
*1126 FILLER_0_12_192
*1127 FILLER_0_12_197
*1128 FILLER_0_12_219
*1129 FILLER_0_12_227
*1130 FILLER_0_12_251
*1131 FILLER_0_12_27
*1132 FILLER_0_12_3
*1133 FILLER_0_12_300
*1134 FILLER_0_12_321
*1135 FILLER_0_12_333
*1136 FILLER_0_12_42
*1137 FILLER_0_12_48
*1138 FILLER_0_12_83
*1139 FILLER_0_13_105
*1140 FILLER_0_13_113
*1141 FILLER_0_13_139
*1142 FILLER_0_13_151
*1143 FILLER_0_13_169
*1144 FILLER_0_13_179
*1145 FILLER_0_13_191
*1146 FILLER_0_13_203
*1147 FILLER_0_13_21
*1148 FILLER_0_13_221
*1149 FILLER_0_13_233
*1150 FILLER_0_13_267
*1151 FILLER_0_13_279
*1152 FILLER_0_13_292
*1153 FILLER_0_13_3
*1154 FILLER_0_13_300
*1155 FILLER_0_13_324
*1156 FILLER_0_13_33
*1157 FILLER_0_13_332
*1158 FILLER_0_13_53
*1159 FILLER_0_13_68
*1160 FILLER_0_14_106
*1161 FILLER_0_14_139
*1162 FILLER_0_14_147
*1163 FILLER_0_14_15
*1164 FILLER_0_14_189
*1165 FILLER_0_14_19
*1166 FILLER_0_14_195
*1167 FILLER_0_14_197
*1168 FILLER_0_14_224
*1169 FILLER_0_14_236
*1170 FILLER_0_14_248
*1171 FILLER_0_14_253
*1172 FILLER_0_14_265
*1173 FILLER_0_14_27
*1174 FILLER_0_14_272
*1175 FILLER_0_14_284
*1176 FILLER_0_14_29
*1177 FILLER_0_14_296
*1178 FILLER_0_14_3
*1179 FILLER_0_14_324
*1180 FILLER_0_14_332
*1181 FILLER_0_14_53
*1182 FILLER_0_14_65
*1183 FILLER_0_14_69
*1184 FILLER_0_14_85
*1185 FILLER_0_14_95
*1186 FILLER_0_15_11
*1187 FILLER_0_15_111
*1188 FILLER_0_15_134
*1189 FILLER_0_15_143
*1190 FILLER_0_15_155
*1191 FILLER_0_15_161
*1192 FILLER_0_15_165
*1193 FILLER_0_15_185
*1194 FILLER_0_15_191
*1195 FILLER_0_15_223
*1196 FILLER_0_15_234
*1197 FILLER_0_15_246
*1198 FILLER_0_15_252
*1199 FILLER_0_15_260
*1200 FILLER_0_15_28
*1201 FILLER_0_15_281
*1202 FILLER_0_15_293
*1203 FILLER_0_15_3
*1204 FILLER_0_15_305
*1205 FILLER_0_15_312
*1206 FILLER_0_15_330
*1207 FILLER_0_15_334
*1208 FILLER_0_15_36
*1209 FILLER_0_15_57
*1210 FILLER_0_15_69
*1211 FILLER_0_15_75
*1212 FILLER_0_15_99
*1213 FILLER_0_16_101
*1214 FILLER_0_16_120
*1215 FILLER_0_16_129
*1216 FILLER_0_16_149
*1217 FILLER_0_16_157
*1218 FILLER_0_16_186
*1219 FILLER_0_16_194
*1220 FILLER_0_16_197
*1221 FILLER_0_16_22
*1222 FILLER_0_16_253
*1223 FILLER_0_16_29
*1224 FILLER_0_16_3
*1225 FILLER_0_16_301
*1226 FILLER_0_16_307
*1227 FILLER_0_16_314
*1228 FILLER_0_16_326
*1229 FILLER_0_16_334
*1230 FILLER_0_16_40
*1231 FILLER_0_16_58
*1232 FILLER_0_16_82
*1233 FILLER_0_17_103
*1234 FILLER_0_17_11
*1235 FILLER_0_17_142
*1236 FILLER_0_17_154
*1237 FILLER_0_17_158
*1238 FILLER_0_17_16
*1239 FILLER_0_17_195
*1240 FILLER_0_17_203
*1241 FILLER_0_17_23
*1242 FILLER_0_17_245
*1243 FILLER_0_17_257
*1244 FILLER_0_17_264
*1245 FILLER_0_17_277
*1246 FILLER_0_17_281
*1247 FILLER_0_17_3
*1248 FILLER_0_17_320
*1249 FILLER_0_17_332
*1250 FILLER_0_17_51
*1251 FILLER_0_17_55
*1252 FILLER_0_17_57
*1253 FILLER_0_17_65
*1254 FILLER_0_18_101
*1255 FILLER_0_18_105
*1256 FILLER_0_18_114
*1257 FILLER_0_18_129
*1258 FILLER_0_18_137
*1259 FILLER_0_18_149
*1260 FILLER_0_18_161
*1261 FILLER_0_18_166
*1262 FILLER_0_18_185
*1263 FILLER_0_18_193
*1264 FILLER_0_18_227
*1265 FILLER_0_18_253
*1266 FILLER_0_18_261
*1267 FILLER_0_18_272
*1268 FILLER_0_18_284
*1269 FILLER_0_18_29
*1270 FILLER_0_18_298
*1271 FILLER_0_18_3
*1272 FILLER_0_18_313
*1273 FILLER_0_18_330
*1274 FILLER_0_18_334
*1275 FILLER_0_18_61
*1276 FILLER_0_18_73
*1277 FILLER_0_19_103
*1278 FILLER_0_19_111
*1279 FILLER_0_19_113
*1280 FILLER_0_19_121
*1281 FILLER_0_19_134
*1282 FILLER_0_19_146
*1283 FILLER_0_19_158
*1284 FILLER_0_19_202
*1285 FILLER_0_19_219
*1286 FILLER_0_19_223
*1287 FILLER_0_19_234
*1288 FILLER_0_19_249
*1289 FILLER_0_19_259
*1290 FILLER_0_19_271
*1291 FILLER_0_19_279
*1292 FILLER_0_19_281
*1293 FILLER_0_19_293
*1294 FILLER_0_19_3
*1295 FILLER_0_19_305
*1296 FILLER_0_19_331
*1297 FILLER_0_19_52
*1298 FILLER_0_19_57
*1299 FILLER_0_19_65
*1300 FILLER_0_19_77
*1301 FILLER_0_1_101
*1302 FILLER_0_1_116
*1303 FILLER_0_1_136
*1304 FILLER_0_1_15
*1305 FILLER_0_1_160
*1306 FILLER_0_1_167
*1307 FILLER_0_1_217
*1308 FILLER_0_1_223
*1309 FILLER_0_1_225
*1310 FILLER_0_1_248
*1311 FILLER_0_1_27
*1312 FILLER_0_1_279
*1313 FILLER_0_1_281
*1314 FILLER_0_1_293
*1315 FILLER_0_1_3
*1316 FILLER_0_1_310
*1317 FILLER_0_1_315
*1318 FILLER_0_1_327
*1319 FILLER_0_1_39
*1320 FILLER_0_1_51
*1321 FILLER_0_1_55
*1322 FILLER_0_1_57
*1323 FILLER_0_1_69
*1324 FILLER_0_1_81
*1325 FILLER_0_20_107
*1326 FILLER_0_20_131
*1327 FILLER_0_20_139
*1328 FILLER_0_20_146
*1329 FILLER_0_20_158
*1330 FILLER_0_20_166
*1331 FILLER_0_20_197
*1332 FILLER_0_20_205
*1333 FILLER_0_20_232
*1334 FILLER_0_20_250
*1335 FILLER_0_20_258
*1336 FILLER_0_20_27
*1337 FILLER_0_20_272
*1338 FILLER_0_20_287
*1339 FILLER_0_20_299
*1340 FILLER_0_20_3
*1341 FILLER_0_20_307
*1342 FILLER_0_20_309
*1343 FILLER_0_20_48
*1344 FILLER_0_20_56
*1345 FILLER_0_20_85
*1346 FILLER_0_20_99
*1347 FILLER_0_21_108
*1348 FILLER_0_21_119
*1349 FILLER_0_21_127
*1350 FILLER_0_21_146
*1351 FILLER_0_21_15
*1352 FILLER_0_21_167
*1353 FILLER_0_21_169
*1354 FILLER_0_21_189
*1355 FILLER_0_21_201
*1356 FILLER_0_21_209
*1357 FILLER_0_21_219
*1358 FILLER_0_21_223
*1359 FILLER_0_21_225
*1360 FILLER_0_21_237
*1361 FILLER_0_21_245
*1362 FILLER_0_21_278
*1363 FILLER_0_21_297
*1364 FILLER_0_21_3
*1365 FILLER_0_21_303
*1366 FILLER_0_21_31
*1367 FILLER_0_21_321
*1368 FILLER_0_21_331
*1369 FILLER_0_21_43
*1370 FILLER_0_21_55
*1371 FILLER_0_21_57
*1372 FILLER_0_21_87
*1373 FILLER_0_21_91
*1374 FILLER_0_22_130
*1375 FILLER_0_22_15
*1376 FILLER_0_22_157
*1377 FILLER_0_22_183
*1378 FILLER_0_22_197
*1379 FILLER_0_22_240
*1380 FILLER_0_22_253
*1381 FILLER_0_22_27
*1382 FILLER_0_22_289
*1383 FILLER_0_22_29
*1384 FILLER_0_22_297
*1385 FILLER_0_22_3
*1386 FILLER_0_22_326
*1387 FILLER_0_22_334
*1388 FILLER_0_22_41
*1389 FILLER_0_22_53
*1390 FILLER_0_22_65
*1391 FILLER_0_22_82
*1392 FILLER_0_23_111
*1393 FILLER_0_23_116
*1394 FILLER_0_23_122
*1395 FILLER_0_23_134
*1396 FILLER_0_23_152
*1397 FILLER_0_23_205
*1398 FILLER_0_23_220
*1399 FILLER_0_23_225
*1400 FILLER_0_23_248
*1401 FILLER_0_23_260
*1402 FILLER_0_23_268
*1403 FILLER_0_23_273
*1404 FILLER_0_23_279
*1405 FILLER_0_23_281
*1406 FILLER_0_23_293
*1407 FILLER_0_23_3
*1408 FILLER_0_23_324
*1409 FILLER_0_23_332
*1410 FILLER_0_23_49
*1411 FILLER_0_23_55
*1412 FILLER_0_23_57
*1413 FILLER_0_23_69
*1414 FILLER_0_23_81
*1415 FILLER_0_23_93
*1416 FILLER_0_24_102
*1417 FILLER_0_24_131
*1418 FILLER_0_24_139
*1419 FILLER_0_24_141
*1420 FILLER_0_24_147
*1421 FILLER_0_24_195
*1422 FILLER_0_24_197
*1423 FILLER_0_24_209
*1424 FILLER_0_24_25
*1425 FILLER_0_24_251
*1426 FILLER_0_24_261
*1427 FILLER_0_24_273
*1428 FILLER_0_24_280
*1429 FILLER_0_24_292
*1430 FILLER_0_24_3
*1431 FILLER_0_24_304
*1432 FILLER_0_24_313
*1433 FILLER_0_24_318
*1434 FILLER_0_24_330
*1435 FILLER_0_24_334
*1436 FILLER_0_24_46
*1437 FILLER_0_24_55
*1438 FILLER_0_24_63
*1439 FILLER_0_24_82
*1440 FILLER_0_24_94
*1441 FILLER_0_25_100
*1442 FILLER_0_25_104
*1443 FILLER_0_25_113
*1444 FILLER_0_25_146
*1445 FILLER_0_25_158
*1446 FILLER_0_25_165
*1447 FILLER_0_25_173
*1448 FILLER_0_25_185
*1449 FILLER_0_25_195
*1450 FILLER_0_25_210
*1451 FILLER_0_25_220
*1452 FILLER_0_25_225
*1453 FILLER_0_25_237
*1454 FILLER_0_25_248
*1455 FILLER_0_25_252
*1456 FILLER_0_25_276
*1457 FILLER_0_25_293
*1458 FILLER_0_25_3
*1459 FILLER_0_25_305
*1460 FILLER_0_25_324
*1461 FILLER_0_25_332
*1462 FILLER_0_25_46
*1463 FILLER_0_25_60
*1464 FILLER_0_25_95
*1465 FILLER_0_26_114
*1466 FILLER_0_26_118
*1467 FILLER_0_26_128
*1468 FILLER_0_26_141
*1469 FILLER_0_26_15
*1470 FILLER_0_26_150
*1471 FILLER_0_26_162
*1472 FILLER_0_26_174
*1473 FILLER_0_26_181
*1474 FILLER_0_26_189
*1475 FILLER_0_26_195
*1476 FILLER_0_26_21
*1477 FILLER_0_26_220
*1478 FILLER_0_26_226
*1479 FILLER_0_26_233
*1480 FILLER_0_26_253
*1481 FILLER_0_26_26
*1482 FILLER_0_26_278
*1483 FILLER_0_26_29
*1484 FILLER_0_26_3
*1485 FILLER_0_26_303
*1486 FILLER_0_26_329
*1487 FILLER_0_26_41
*1488 FILLER_0_26_45
*1489 FILLER_0_26_54
*1490 FILLER_0_26_66
*1491 FILLER_0_26_82
*1492 FILLER_0_26_92
*1493 FILLER_0_27_111
*1494 FILLER_0_27_113
*1495 FILLER_0_27_125
*1496 FILLER_0_27_137
*1497 FILLER_0_27_157
*1498 FILLER_0_27_165
*1499 FILLER_0_27_169
*1500 FILLER_0_27_177
*1501 FILLER_0_27_223
*1502 FILLER_0_27_236
*1503 FILLER_0_27_269
*1504 FILLER_0_27_27
*1505 FILLER_0_27_292
*1506 FILLER_0_27_3
*1507 FILLER_0_27_50
*1508 FILLER_0_27_57
*1509 FILLER_0_27_87
*1510 FILLER_0_27_99
*1511 FILLER_0_28_106
*1512 FILLER_0_28_136
*1513 FILLER_0_28_147
*1514 FILLER_0_28_159
*1515 FILLER_0_28_163
*1516 FILLER_0_28_171
*1517 FILLER_0_28_178
*1518 FILLER_0_28_186
*1519 FILLER_0_28_193
*1520 FILLER_0_28_235
*1521 FILLER_0_28_247
*1522 FILLER_0_28_251
*1523 FILLER_0_28_253
*1524 FILLER_0_28_270
*1525 FILLER_0_28_29
*1526 FILLER_0_28_298
*1527 FILLER_0_28_3
*1528 FILLER_0_28_302
*1529 FILLER_0_28_309
*1530 FILLER_0_28_327
*1531 FILLER_0_28_51
*1532 FILLER_0_28_7