*SPEF "ieee 1481-1999"
*DESIGN "tt_um_kwilke_cdc_fifo"
*DATE "03:46:51 Friday April 12, 2024"
*VENDOR "The OpenROAD Project"
*PROGRAM "OpenROAD"
*VERSION "0889970d1790a2617e69f253221b8bd7626e51dc"
*DESIGN_FLOW "NAME_SCOPE LOCAL" "PIN_CAP NONE"
*DIVIDER /
*DELIMITER :
*BUS_DELIMITER []
*T_UNIT 1 NS
*C_UNIT 1 PF
*R_UNIT 1 OHM
*L_UNIT 1 HENRY

*NAME_MAP
*3 clk
*4 ena
*5 rst_n
*6 ui_in[0]
*7 ui_in[1]
*8 ui_in[2]
*9 ui_in[3]
*10 ui_in[4]
*11 ui_in[5]
*12 ui_in[6]
*13 ui_in[7]
*14 uio_in[0]
*15 uio_in[1]
*16 uio_in[2]
*17 uio_in[3]
*18 uio_in[4]
*19 uio_in[5]
*20 uio_in[6]
*21 uio_in[7]
*22 net14
*23 net15
*24 net16
*25 net17
*26 net18
*27 net19
*28 net20
*29 net21
*30 net22
*31 net23
*32 net24
*33 net25
*34 net26
*35 net27
*36 net28
*37 net29
*38 uo_out[0]
*39 uo_out[1]
*40 net30
*41 net31
*42 uo_out[4]
*43 uo_out[5]
*44 uo_out[6]
*45 uo_out[7]
*46 _0000_
*47 _0001_
*48 _0002_
*49 _0003_
*50 _0004_
*51 _0005_
*52 _0006_
*53 _0007_
*54 _0008_
*55 _0009_
*56 _0010_
*57 _0011_
*58 _0012_
*59 _0013_
*60 _0014_
*61 _0015_
*62 _0016_
*63 _0017_
*64 _0018_
*65 _0019_
*66 _0020_
*67 _0021_
*68 _0022_
*69 _0023_
*70 _0024_
*71 _0025_
*72 _0026_
*73 _0027_
*74 _0028_
*75 _0029_
*76 _0030_
*77 _0031_
*78 _0032_
*79 _0033_
*80 _0034_
*81 _0035_
*82 _0036_
*83 _0037_
*84 _0038_
*85 _0039_
*86 _0040_
*87 _0041_
*88 _0042_
*89 _0043_
*90 _0044_
*91 _0045_
*92 _0046_
*93 _0047_
*94 _0048_
*95 _0049_
*96 _0050_
*97 _0051_
*98 _0052_
*99 _0053_
*100 _0054_
*101 _0055_
*102 _0056_
*103 _0057_
*104 _0058_
*105 _0059_
*106 _0060_
*107 _0061_
*108 _0062_
*109 _0063_
*110 _0064_
*111 _0065_
*112 _0066_
*113 _0067_
*114 _0068_
*115 _0069_
*116 _0070_
*117 _0071_
*118 _0072_
*119 _0073_
*120 _0074_
*121 _0075_
*122 _0076_
*123 _0077_
*124 _0078_
*125 _0079_
*126 _0080_
*127 _0081_
*128 _0082_
*129 _0083_
*130 _0084_
*131 _0085_
*132 _0086_
*133 _0087_
*134 _0088_
*135 _0089_
*136 _0090_
*137 _0091_
*138 _0092_
*139 _0093_
*140 _0094_
*141 _0095_
*142 _0096_
*143 _0097_
*144 _0098_
*145 _0099_
*146 _0100_
*147 _0101_
*148 _0102_
*149 _0103_
*150 _0104_
*151 _0105_
*152 _0106_
*153 _0107_
*154 _0108_
*155 _0109_
*156 _0110_
*157 _0111_
*158 _0112_
*159 _0113_
*160 _0114_
*161 _0115_
*162 _0116_
*163 _0117_
*164 _0118_
*165 _0119_
*166 _0120_
*167 _0121_
*168 _0122_
*169 _0123_
*170 _0124_
*171 _0125_
*172 _0126_
*173 _0127_
*174 _0128_
*175 _0129_
*176 _0130_
*177 _0131_
*178 _0132_
*179 _0133_
*180 _0134_
*181 _0135_
*182 _0136_
*183 _0137_
*184 _0138_
*185 _0139_
*186 _0140_
*187 _0141_
*188 _0142_
*189 _0143_
*190 _0144_
*191 _0145_
*192 _0146_
*193 _0147_
*194 _0148_
*195 _0149_
*196 _0150_
*197 _0151_
*198 _0152_
*199 _0153_
*200 _0154_
*201 _0155_
*202 _0156_
*203 _0157_
*204 _0158_
*205 _0159_
*206 _0160_
*207 _0161_
*208 _0162_
*209 _0163_
*210 _0164_
*211 _0165_
*212 _0166_
*213 _0167_
*214 _0168_
*215 _0169_
*216 _0170_
*217 _0171_
*218 _0172_
*219 _0173_
*220 _0174_
*221 _0175_
*222 _0176_
*223 _0177_
*224 _0178_
*225 _0179_
*226 _0180_
*227 _0181_
*228 _0182_
*229 _0183_
*230 _0184_
*231 _0185_
*232 _0186_
*233 _0187_
*234 _0188_
*235 _0189_
*236 _0190_
*237 _0191_
*238 _0192_
*239 _0193_
*240 _0194_
*241 _0195_
*242 _0196_
*243 _0197_
*244 _0198_
*245 _0199_
*246 _0200_
*247 _0201_
*248 _0202_
*249 _0203_
*250 _0204_
*251 _0205_
*252 _0206_
*253 _0207_
*254 _0208_
*255 _0209_
*256 _0210_
*257 _0211_
*258 _0212_
*259 _0213_
*260 _0214_
*261 _0215_
*262 _0216_
*263 _0217_
*264 _0218_
*265 _0219_
*266 _0220_
*267 _0221_
*268 _0222_
*269 _0223_
*270 _0224_
*271 _0225_
*272 _0226_
*273 _0227_
*274 _0228_
*275 _0229_
*276 _0230_
*277 _0231_
*278 _0232_
*279 _0233_
*280 _0234_
*281 _0235_
*282 _0236_
*283 _0237_
*284 _0238_
*285 _0239_
*286 _0240_
*287 _0241_
*288 _0242_
*289 _0243_
*290 _0244_
*291 _0245_
*292 _0246_
*293 _0247_
*294 _0248_
*295 _0249_
*296 _0250_
*297 _0251_
*298 _0252_
*299 _0253_
*300 _0254_
*301 _0255_
*302 _0256_
*303 _0257_
*304 _0258_
*305 _0259_
*306 _0260_
*307 _0261_
*308 _0262_
*309 _0263_
*310 _0264_
*311 _0265_
*312 _0266_
*313 _0267_
*314 _0268_
*315 _0269_
*316 _0270_
*317 _0271_
*318 _0272_
*319 _0273_
*320 _0274_
*321 _0275_
*322 _0276_
*323 _0277_
*324 _0278_
*325 _0279_
*326 _0280_
*327 _0281_
*328 _0282_
*329 _0283_
*330 _0284_
*331 _0285_
*332 _0286_
*333 _0287_
*334 _0288_
*335 _0289_
*336 _0290_
*337 _0291_
*338 _0292_
*339 _0293_
*340 _0294_
*341 _0295_
*342 _0296_
*343 _0297_
*344 _0298_
*345 _0299_
*346 _0300_
*347 _0301_
*348 _0302_
*349 _0303_
*350 _0304_
*351 _0305_
*352 _0306_
*353 _0307_
*354 _0308_
*355 _0309_
*356 _0310_
*357 _0311_
*358 _0312_
*359 _0313_
*360 _0314_
*361 _0315_
*362 _0316_
*363 _0317_
*364 _0318_
*365 _0319_
*366 _0320_
*367 _0321_
*368 _0322_
*369 _0323_
*370 _0324_
*371 _0325_
*372 _0326_
*373 _0327_
*374 _0328_
*375 _0329_
*376 _0330_
*377 _0331_
*378 _0332_
*379 _0333_
*380 _0334_
*381 _0335_
*382 _0336_
*383 _0337_
*384 _0338_
*385 _0339_
*386 _0340_
*387 _0341_
*388 _0342_
*389 _0343_
*390 _0344_
*391 _0345_
*392 _0346_
*393 _0347_
*394 _0348_
*395 _0349_
*396 _0350_
*397 _0351_
*398 _0352_
*399 _0353_
*400 _0354_
*401 _0355_
*402 _0356_
*403 _0357_
*404 _0358_
*405 _0359_
*406 _0360_
*407 _0361_
*408 _0362_
*409 _0363_
*410 _0364_
*411 _0365_
*412 _0366_
*413 _0367_
*414 _0368_
*415 _0369_
*416 _0370_
*417 _0371_
*418 _0372_
*419 _0373_
*420 _0374_
*421 _0375_
*422 _0376_
*423 _0377_
*424 _0378_
*425 _0379_
*426 _0380_
*427 _0381_
*428 _0382_
*429 _0383_
*430 _0384_
*431 _0385_
*432 _0386_
*433 _0387_
*434 _0388_
*435 _0389_
*436 _0390_
*437 _0391_
*438 _0392_
*439 _0393_
*440 _0394_
*441 _0395_
*442 _0396_
*443 _0397_
*444 _0398_
*445 _0399_
*446 _0400_
*447 _0401_
*448 _0402_
*449 _0403_
*450 _0404_
*451 _0405_
*452 _0406_
*453 _0407_
*454 _0408_
*455 _0409_
*456 _0410_
*457 _0411_
*458 _0412_
*459 _0413_
*460 _0414_
*461 _0415_
*462 _0416_
*463 _0417_
*464 _0418_
*465 _0419_
*466 _0420_
*467 _0421_
*468 _0422_
*469 _0423_
*470 _0424_
*471 _0425_
*472 _0426_
*473 _0427_
*474 _0428_
*475 _0429_
*476 _0430_
*477 _0431_
*478 _0432_
*479 _0433_
*480 _0434_
*481 _0435_
*482 _0436_
*483 _0437_
*484 _0438_
*485 _0439_
*486 _0440_
*487 _0441_
*488 _0442_
*489 _0443_
*490 _0444_
*491 _0445_
*492 _0446_
*493 _0447_
*494 _0448_
*495 _0449_
*496 _0450_
*497 _0451_
*498 _0452_
*499 _0453_
*500 _0454_
*501 _0455_
*502 _0456_
*503 _0457_
*504 _0458_
*505 _0459_
*506 _0460_
*507 _0461_
*508 _0462_
*509 _0463_
*510 _0464_
*511 _0465_
*512 _0466_
*513 _0467_
*514 _0468_
*515 _0469_
*516 _0470_
*517 _0471_
*518 _0472_
*519 _0473_
*520 _0474_
*521 clknet_0_ui_in[0]
*522 clknet_0_ui_in[2]
*523 clknet_1_0__leaf_ui_in[2]
*524 clknet_1_1__leaf_ui_in[2]
*525 clknet_4_0_0_ui_in[0]
*526 clknet_4_10_0_ui_in[0]
*527 clknet_4_11_0_ui_in[0]
*528 clknet_4_12_0_ui_in[0]
*529 clknet_4_13_0_ui_in[0]
*530 clknet_4_14_0_ui_in[0]
*531 clknet_4_15_0_ui_in[0]
*532 clknet_4_1_0_ui_in[0]
*533 clknet_4_2_0_ui_in[0]
*534 clknet_4_3_0_ui_in[0]
*535 clknet_4_4_0_ui_in[0]
*536 clknet_4_5_0_ui_in[0]
*537 clknet_4_6_0_ui_in[0]
*538 clknet_4_7_0_ui_in[0]
*539 clknet_4_8_0_ui_in[0]
*540 clknet_4_9_0_ui_in[0]
*541 kwilke_fifo\.empty
*542 kwilke_fifo\.fifo_memory\.memory\[0\]\[0\]
*543 kwilke_fifo\.fifo_memory\.memory\[0\]\[1\]
*544 kwilke_fifo\.fifo_memory\.memory\[0\]\[2\]
*545 kwilke_fifo\.fifo_memory\.memory\[0\]\[3\]
*546 kwilke_fifo\.fifo_memory\.memory\[10\]\[0\]
*547 kwilke_fifo\.fifo_memory\.memory\[10\]\[1\]
*548 kwilke_fifo\.fifo_memory\.memory\[10\]\[2\]
*549 kwilke_fifo\.fifo_memory\.memory\[10\]\[3\]
*550 kwilke_fifo\.fifo_memory\.memory\[11\]\[0\]
*551 kwilke_fifo\.fifo_memory\.memory\[11\]\[1\]
*552 kwilke_fifo\.fifo_memory\.memory\[11\]\[2\]
*553 kwilke_fifo\.fifo_memory\.memory\[11\]\[3\]
*554 kwilke_fifo\.fifo_memory\.memory\[12\]\[0\]
*555 kwilke_fifo\.fifo_memory\.memory\[12\]\[1\]
*556 kwilke_fifo\.fifo_memory\.memory\[12\]\[2\]
*557 kwilke_fifo\.fifo_memory\.memory\[12\]\[3\]
*558 kwilke_fifo\.fifo_memory\.memory\[13\]\[0\]
*559 kwilke_fifo\.fifo_memory\.memory\[13\]\[1\]
*560 kwilke_fifo\.fifo_memory\.memory\[13\]\[2\]
*561 kwilke_fifo\.fifo_memory\.memory\[13\]\[3\]
*562 kwilke_fifo\.fifo_memory\.memory\[14\]\[0\]
*563 kwilke_fifo\.fifo_memory\.memory\[14\]\[1\]
*564 kwilke_fifo\.fifo_memory\.memory\[14\]\[2\]
*565 kwilke_fifo\.fifo_memory\.memory\[14\]\[3\]
*566 kwilke_fifo\.fifo_memory\.memory\[15\]\[0\]
*567 kwilke_fifo\.fifo_memory\.memory\[15\]\[1\]
*568 kwilke_fifo\.fifo_memory\.memory\[15\]\[2\]
*569 kwilke_fifo\.fifo_memory\.memory\[15\]\[3\]
*570 kwilke_fifo\.fifo_memory\.memory\[16\]\[0\]
*571 kwilke_fifo\.fifo_memory\.memory\[16\]\[1\]
*572 kwilke_fifo\.fifo_memory\.memory\[16\]\[2\]
*573 kwilke_fifo\.fifo_memory\.memory\[16\]\[3\]
*574 kwilke_fifo\.fifo_memory\.memory\[17\]\[0\]
*575 kwilke_fifo\.fifo_memory\.memory\[17\]\[1\]
*576 kwilke_fifo\.fifo_memory\.memory\[17\]\[2\]
*577 kwilke_fifo\.fifo_memory\.memory\[17\]\[3\]
*578 kwilke_fifo\.fifo_memory\.memory\[18\]\[0\]
*579 kwilke_fifo\.fifo_memory\.memory\[18\]\[1\]
*580 kwilke_fifo\.fifo_memory\.memory\[18\]\[2\]
*581 kwilke_fifo\.fifo_memory\.memory\[18\]\[3\]
*582 kwilke_fifo\.fifo_memory\.memory\[19\]\[0\]
*583 kwilke_fifo\.fifo_memory\.memory\[19\]\[1\]
*584 kwilke_fifo\.fifo_memory\.memory\[19\]\[2\]
*585 kwilke_fifo\.fifo_memory\.memory\[19\]\[3\]
*586 kwilke_fifo\.fifo_memory\.memory\[1\]\[0\]
*587 kwilke_fifo\.fifo_memory\.memory\[1\]\[1\]
*588 kwilke_fifo\.fifo_memory\.memory\[1\]\[2\]
*589 kwilke_fifo\.fifo_memory\.memory\[1\]\[3\]
*590 kwilke_fifo\.fifo_memory\.memory\[20\]\[0\]
*591 kwilke_fifo\.fifo_memory\.memory\[20\]\[1\]
*592 kwilke_fifo\.fifo_memory\.memory\[20\]\[2\]
*593 kwilke_fifo\.fifo_memory\.memory\[20\]\[3\]
*594 kwilke_fifo\.fifo_memory\.memory\[21\]\[0\]
*595 kwilke_fifo\.fifo_memory\.memory\[21\]\[1\]
*596 kwilke_fifo\.fifo_memory\.memory\[21\]\[2\]
*597 kwilke_fifo\.fifo_memory\.memory\[21\]\[3\]
*598 kwilke_fifo\.fifo_memory\.memory\[22\]\[0\]
*599 kwilke_fifo\.fifo_memory\.memory\[22\]\[1\]
*600 kwilke_fifo\.fifo_memory\.memory\[22\]\[2\]
*601 kwilke_fifo\.fifo_memory\.memory\[22\]\[3\]
*602 kwilke_fifo\.fifo_memory\.memory\[23\]\[0\]
*603 kwilke_fifo\.fifo_memory\.memory\[23\]\[1\]
*604 kwilke_fifo\.fifo_memory\.memory\[23\]\[2\]
*605 kwilke_fifo\.fifo_memory\.memory\[23\]\[3\]
*606 kwilke_fifo\.fifo_memory\.memory\[24\]\[0\]
*607 kwilke_fifo\.fifo_memory\.memory\[24\]\[1\]
*608 kwilke_fifo\.fifo_memory\.memory\[24\]\[2\]
*609 kwilke_fifo\.fifo_memory\.memory\[24\]\[3\]
*610 kwilke_fifo\.fifo_memory\.memory\[25\]\[0\]
*611 kwilke_fifo\.fifo_memory\.memory\[25\]\[1\]
*612 kwilke_fifo\.fifo_memory\.memory\[25\]\[2\]
*613 kwilke_fifo\.fifo_memory\.memory\[25\]\[3\]
*614 kwilke_fifo\.fifo_memory\.memory\[26\]\[0\]
*615 kwilke_fifo\.fifo_memory\.memory\[26\]\[1\]
*616 kwilke_fifo\.fifo_memory\.memory\[26\]\[2\]
*617 kwilke_fifo\.fifo_memory\.memory\[26\]\[3\]
*618 kwilke_fifo\.fifo_memory\.memory\[27\]\[0\]
*619 kwilke_fifo\.fifo_memory\.memory\[27\]\[1\]
*620 kwilke_fifo\.fifo_memory\.memory\[27\]\[2\]
*621 kwilke_fifo\.fifo_memory\.memory\[27\]\[3\]
*622 kwilke_fifo\.fifo_memory\.memory\[28\]\[0\]
*623 kwilke_fifo\.fifo_memory\.memory\[28\]\[1\]
*624 kwilke_fifo\.fifo_memory\.memory\[28\]\[2\]
*625 kwilke_fifo\.fifo_memory\.memory\[28\]\[3\]
*626 kwilke_fifo\.fifo_memory\.memory\[29\]\[0\]
*627 kwilke_fifo\.fifo_memory\.memory\[29\]\[1\]
*628 kwilke_fifo\.fifo_memory\.memory\[29\]\[2\]
*629 kwilke_fifo\.fifo_memory\.memory\[29\]\[3\]
*630 kwilke_fifo\.fifo_memory\.memory\[2\]\[0\]
*631 kwilke_fifo\.fifo_memory\.memory\[2\]\[1\]
*632 kwilke_fifo\.fifo_memory\.memory\[2\]\[2\]
*633 kwilke_fifo\.fifo_memory\.memory\[2\]\[3\]
*634 kwilke_fifo\.fifo_memory\.memory\[30\]\[0\]
*635 kwilke_fifo\.fifo_memory\.memory\[30\]\[1\]
*636 kwilke_fifo\.fifo_memory\.memory\[30\]\[2\]
*637 kwilke_fifo\.fifo_memory\.memory\[30\]\[3\]
*638 kwilke_fifo\.fifo_memory\.memory\[31\]\[0\]
*639 kwilke_fifo\.fifo_memory\.memory\[31\]\[1\]
*640 kwilke_fifo\.fifo_memory\.memory\[31\]\[2\]
*641 kwilke_fifo\.fifo_memory\.memory\[31\]\[3\]
*642 kwilke_fifo\.fifo_memory\.memory\[3\]\[0\]
*643 kwilke_fifo\.fifo_memory\.memory\[3\]\[1\]
*644 kwilke_fifo\.fifo_memory\.memory\[3\]\[2\]
*645 kwilke_fifo\.fifo_memory\.memory\[3\]\[3\]
*646 kwilke_fifo\.fifo_memory\.memory\[4\]\[0\]
*647 kwilke_fifo\.fifo_memory\.memory\[4\]\[1\]
*648 kwilke_fifo\.fifo_memory\.memory\[4\]\[2\]
*649 kwilke_fifo\.fifo_memory\.memory\[4\]\[3\]
*650 kwilke_fifo\.fifo_memory\.memory\[5\]\[0\]
*651 kwilke_fifo\.fifo_memory\.memory\[5\]\[1\]
*652 kwilke_fifo\.fifo_memory\.memory\[5\]\[2\]
*653 kwilke_fifo\.fifo_memory\.memory\[5\]\[3\]
*654 kwilke_fifo\.fifo_memory\.memory\[6\]\[0\]
*655 kwilke_fifo\.fifo_memory\.memory\[6\]\[1\]
*656 kwilke_fifo\.fifo_memory\.memory\[6\]\[2\]
*657 kwilke_fifo\.fifo_memory\.memory\[6\]\[3\]
*658 kwilke_fifo\.fifo_memory\.memory\[7\]\[0\]
*659 kwilke_fifo\.fifo_memory\.memory\[7\]\[1\]
*660 kwilke_fifo\.fifo_memory\.memory\[7\]\[2\]
*661 kwilke_fifo\.fifo_memory\.memory\[7\]\[3\]
*662 kwilke_fifo\.fifo_memory\.memory\[8\]\[0\]
*663 kwilke_fifo\.fifo_memory\.memory\[8\]\[1\]
*664 kwilke_fifo\.fifo_memory\.memory\[8\]\[2\]
*665 kwilke_fifo\.fifo_memory\.memory\[8\]\[3\]
*666 kwilke_fifo\.fifo_memory\.memory\[9\]\[0\]
*667 kwilke_fifo\.fifo_memory\.memory\[9\]\[1\]
*668 kwilke_fifo\.fifo_memory\.memory\[9\]\[2\]
*669 kwilke_fifo\.fifo_memory\.memory\[9\]\[3\]
*670 kwilke_fifo\.fifo_memory\.read_address\[0\]
*671 kwilke_fifo\.fifo_memory\.read_address\[1\]
*672 kwilke_fifo\.fifo_memory\.read_address\[2\]
*673 kwilke_fifo\.fifo_memory\.read_address\[3\]
*674 kwilke_fifo\.fifo_memory\.read_address\[4\]
*675 kwilke_fifo\.fifo_memory\.write_address\[0\]
*676 kwilke_fifo\.fifo_memory\.write_address\[1\]
*677 kwilke_fifo\.fifo_memory\.write_address\[2\]
*678 kwilke_fifo\.fifo_memory\.write_address\[3\]
*679 kwilke_fifo\.fifo_memory\.write_address\[4\]
*680 kwilke_fifo\.full
*681 kwilke_fifo\.read_address_gray_postsync\[0\]
*682 kwilke_fifo\.read_address_gray_postsync\[1\]
*683 kwilke_fifo\.read_address_gray_postsync\[2\]
*684 kwilke_fifo\.read_address_gray_postsync\[3\]
*685 kwilke_fifo\.read_address_gray_postsync\[4\]
*686 kwilke_fifo\.read_address_gray_presync\[0\]
*687 kwilke_fifo\.read_address_gray_presync\[1\]
*688 kwilke_fifo\.read_address_gray_presync\[2\]
*689 kwilke_fifo\.read_address_gray_presync\[3\]
*690 kwilke_fifo\.read_address_sync\.data\[0\]
*691 kwilke_fifo\.read_address_sync\.data\[1\]
*692 kwilke_fifo\.read_address_sync\.data\[2\]
*693 kwilke_fifo\.read_address_sync\.data\[3\]
*694 kwilke_fifo\.read_address_sync\.data\[4\]
*695 kwilke_fifo\.readstate\.write_addr_decode\.binary\[4\]
*696 kwilke_fifo\.readstate\.write_addr_decode\.gray\[0\]
*697 kwilke_fifo\.readstate\.write_addr_decode\.gray\[1\]
*698 kwilke_fifo\.readstate\.write_addr_decode\.gray\[2\]
*699 kwilke_fifo\.readstate\.write_addr_decode\.gray\[3\]
*700 kwilke_fifo\.write_address_gray_presync\[0\]
*701 kwilke_fifo\.write_address_gray_presync\[1\]
*702 kwilke_fifo\.write_address_gray_presync\[2\]
*703 kwilke_fifo\.write_address_gray_presync\[3\]
*704 kwilke_fifo\.write_address_sync\.data\[0\]
*705 kwilke_fifo\.write_address_sync\.data\[1\]
*706 kwilke_fifo\.write_address_sync\.data\[2\]
*707 kwilke_fifo\.write_address_sync\.data\[3\]
*708 kwilke_fifo\.write_address_sync\.data\[4\]
*709 net1
*710 net10
*711 net100
*712 net101
*713 net102
*714 net103
*715 net104
*716 net105
*717 net106
*718 net107
*719 net108
*720 net109
*721 net11
*722 net110
*723 net111
*724 net112
*725 net113
*726 net114
*727 net115
*728 net116
*729 net117
*730 net118
*731 net119
*732 net12
*733 net120
*734 net121
*735 net122
*736 net123
*737 net124
*738 net125
*739 net126
*740 net127
*741 net128
*742 net129
*743 net13
*744 net130
*745 net131
*746 net132
*747 net133
*748 net134
*749 net135
*750 net136
*751 net137
*752 net138
*753 net139
*754 net140
*755 net141
*756 net142
*757 net143
*758 net144
*759 net145
*760 net146
*761 net147
*762 net148
*763 net149
*764 net150
*765 net151
*766 net152
*767 net153
*768 net154
*769 net155
*770 net156
*771 net157
*772 net158
*773 net159
*774 net160
*775 net161
*776 net162
*777 net163
*778 net164
*779 net165
*780 net166
*781 net167
*782 net168
*783 net169
*784 net170
*785 net171
*786 net172
*787 net2
*788 net3
*789 net32
*790 net33
*791 net34
*792 net35
*793 net36
*794 net37
*795 net38
*796 net39
*797 net4
*798 net40
*799 net41
*800 net42
*801 net43
*802 net44
*803 net45
*804 net46
*805 net47
*806 net48
*807 net49
*808 net5
*809 net50
*810 net51
*811 net52
*812 net53
*813 net54
*814 net55
*815 net56
*816 net57
*817 net58
*818 net59
*819 net6
*820 net60
*821 net61
*822 net62
*823 net63
*824 net64
*825 net65
*826 net66
*827 net67
*828 net68
*829 net69
*830 net7
*831 net70
*832 net71
*833 net72
*834 net73
*835 net74
*836 net75
*837 net76
*838 net77
*839 net78
*840 net79
*841 net8
*842 net80
*843 net81
*844 net82
*845 net83
*846 net84
*847 net85
*848 net86
*849 net87
*850 net88
*851 net89
*852 net9
*853 net90
*854 net91
*855 net92
*856 net93
*857 net94
*858 net95
*859 net96
*860 net97
*861 net98
*862 net99
*863 ANTENNA_1
*864 FILLER_0_0_109
*865 FILLER_0_0_113
*866 FILLER_0_0_125
*867 FILLER_0_0_137
*868 FILLER_0_0_141
*869 FILLER_0_0_15
*870 FILLER_0_0_153
*871 FILLER_0_0_165
*872 FILLER_0_0_169
*873 FILLER_0_0_181
*874 FILLER_0_0_193
*875 FILLER_0_0_197
*876 FILLER_0_0_209
*877 FILLER_0_0_221
*878 FILLER_0_0_225
*879 FILLER_0_0_237
*880 FILLER_0_0_249
*881 FILLER_0_0_253
*882 FILLER_0_0_265
*883 FILLER_0_0_27
*884 FILLER_0_0_277
*885 FILLER_0_0_281
*886 FILLER_0_0_29
*887 FILLER_0_0_293
*888 FILLER_0_0_3
*889 FILLER_0_0_305
*890 FILLER_0_0_309
*891 FILLER_0_0_321
*892 FILLER_0_0_333
*893 FILLER_0_0_41
*894 FILLER_0_0_53
*895 FILLER_0_0_57
*896 FILLER_0_0_69
*897 FILLER_0_0_81
*898 FILLER_0_0_85
*899 FILLER_0_0_97
*900 FILLER_0_10_11
*901 FILLER_0_10_122
*902 FILLER_0_10_134
*903 FILLER_0_10_141
*904 FILLER_0_10_145
*905 FILLER_0_10_154
*906 FILLER_0_10_166
*907 FILLER_0_10_174
*908 FILLER_0_10_195
*909 FILLER_0_10_205
*910 FILLER_0_10_233
*911 FILLER_0_10_251
*912 FILLER_0_10_253
*913 FILLER_0_10_264
*914 FILLER_0_10_287
*915 FILLER_0_10_299
*916 FILLER_0_10_3
*917 FILLER_0_10_307
*918 FILLER_0_10_309
*919 FILLER_0_10_321
*920 FILLER_0_10_333
*921 FILLER_0_10_45
*922 FILLER_0_10_63
*923 FILLER_0_10_72
*924 FILLER_0_11_110
*925 FILLER_0_11_134
*926 FILLER_0_11_148
*927 FILLER_0_11_161
*928 FILLER_0_11_167
*929 FILLER_0_11_169
*930 FILLER_0_11_201
*931 FILLER_0_11_221
*932 FILLER_0_11_225
*933 FILLER_0_11_231
*934 FILLER_0_11_262
*935 FILLER_0_11_281
*936 FILLER_0_11_3
*937 FILLER_0_11_307
*938 FILLER_0_11_319
*939 FILLER_0_11_331
*940 FILLER_0_11_34
*941 FILLER_0_11_66
*942 FILLER_0_11_78
*943 FILLER_0_12_11
*944 FILLER_0_12_141
*945 FILLER_0_12_168
*946 FILLER_0_12_17
*947 FILLER_0_12_193
*948 FILLER_0_12_214
*949 FILLER_0_12_224
*950 FILLER_0_12_247
*951 FILLER_0_12_251
*952 FILLER_0_12_3
*953 FILLER_0_12_303
*954 FILLER_0_12_307
*955 FILLER_0_12_309
*956 FILLER_0_12_321
*957 FILLER_0_12_333
*958 FILLER_0_12_54
*959 FILLER_0_12_63
*960 FILLER_0_12_72
*961 FILLER_0_12_85
*962 FILLER_0_12_89
*963 FILLER_0_13_133
*964 FILLER_0_13_15
*965 FILLER_0_13_164
*966 FILLER_0_13_169
*967 FILLER_0_13_190
*968 FILLER_0_13_21
*969 FILLER_0_13_222
*970 FILLER_0_13_225
*971 FILLER_0_13_231
*972 FILLER_0_13_258
*973 FILLER_0_13_279
*974 FILLER_0_13_3
*975 FILLER_0_13_301
*976 FILLER_0_13_31
*977 FILLER_0_13_313
*978 FILLER_0_13_325
*979 FILLER_0_13_333
*980 FILLER_0_13_37
*981 FILLER_0_13_49
*982 FILLER_0_13_55
*983 FILLER_0_13_69
*984 FILLER_0_13_81
*985 FILLER_0_13_93
*986 FILLER_0_14_102
*987 FILLER_0_14_106
*988 FILLER_0_14_112
*989 FILLER_0_14_124
*990 FILLER_0_14_139
*991 FILLER_0_14_141
*992 FILLER_0_14_148
*993 FILLER_0_14_160
*994 FILLER_0_14_168
*995 FILLER_0_14_177
*996 FILLER_0_14_193
*997 FILLER_0_14_216
*998 FILLER_0_14_228
*999 FILLER_0_14_253
*1000 FILLER_0_14_265
*1001 FILLER_0_14_27
*1002 FILLER_0_14_270
*1003 FILLER_0_14_284
*1004 FILLER_0_14_3
*1005 FILLER_0_14_300
*1006 FILLER_0_14_309
*1007 FILLER_0_14_32
*1008 FILLER_0_14_321
*1009 FILLER_0_14_333
*1010 FILLER_0_14_7
*1011 FILLER_0_14_83
*1012 FILLER_0_14_94
*1013 FILLER_0_15_111
*1014 FILLER_0_15_113
*1015 FILLER_0_15_118
*1016 FILLER_0_15_145
*1017 FILLER_0_15_164
*1018 FILLER_0_15_169
*1019 FILLER_0_15_181
*1020 FILLER_0_15_189
*1021 FILLER_0_15_207
*1022 FILLER_0_15_219
*1023 FILLER_0_15_225
*1024 FILLER_0_15_251
*1025 FILLER_0_15_264
*1026 FILLER_0_15_270
*1027 FILLER_0_15_276
*1028 FILLER_0_15_3
*1029 FILLER_0_15_322
*1030 FILLER_0_15_334
*1031 FILLER_0_15_54
*1032 FILLER_0_15_57
*1033 FILLER_0_16_111
*1034 FILLER_0_16_139
*1035 FILLER_0_16_141
*1036 FILLER_0_16_165
*1037 FILLER_0_16_175
*1038 FILLER_0_16_181
*1039 FILLER_0_16_192
*1040 FILLER_0_16_221
*1041 FILLER_0_16_249
*1042 FILLER_0_16_253
*1043 FILLER_0_16_259
*1044 FILLER_0_16_27
*1045 FILLER_0_16_272
*1046 FILLER_0_16_283
*1047 FILLER_0_16_29
*1048 FILLER_0_16_3
*1049 FILLER_0_16_300
*1050 FILLER_0_16_309
*1051 FILLER_0_16_321
*1052 FILLER_0_16_33
*1053 FILLER_0_16_333
*1054 FILLER_0_16_43
*1055 FILLER_0_16_53
*1056 FILLER_0_17_110
*1057 FILLER_0_17_122
*1058 FILLER_0_17_15
*1059 FILLER_0_17_158
*1060 FILLER_0_17_217
*1061 FILLER_0_17_225
*1062 FILLER_0_17_26
*1063 FILLER_0_17_278
*1064 FILLER_0_17_297
*1065 FILLER_0_17_3
*1066 FILLER_0_17_309
*1067 FILLER_0_17_321
*1068 FILLER_0_17_333
*1069 FILLER_0_17_35
*1070 FILLER_0_17_44
*1071 FILLER_0_18_137
*1072 FILLER_0_18_141
*1073 FILLER_0_18_156
*1074 FILLER_0_18_167
*1075 FILLER_0_18_178
*1076 FILLER_0_18_194
*1077 FILLER_0_18_197
*1078 FILLER_0_18_204
*1079 FILLER_0_18_225
*1080 FILLER_0_18_241
*1081 FILLER_0_18_249
*1082 FILLER_0_18_25
*1083 FILLER_0_18_253
*1084 FILLER_0_18_261
*1085 FILLER_0_18_278
*1086 FILLER_0_18_288
*1087 FILLER_0_18_29
*1088 FILLER_0_18_3
*1089 FILLER_0_18_300
*1090 FILLER_0_18_309
*1091 FILLER_0_18_321
*1092 FILLER_0_18_333
*1093 FILLER_0_18_65
*1094 FILLER_0_18_75
*1095 FILLER_0_18_83
*1096 FILLER_0_18_85
*1097 FILLER_0_19_137
*1098 FILLER_0_19_162
*1099 FILLER_0_19_169
*1100 FILLER_0_19_177
*1101 FILLER_0_19_197
*1102 FILLER_0_19_209
*1103 FILLER_0_19_221
*1104 FILLER_0_19_225
*1105 FILLER_0_19_232
*1106 FILLER_0_19_242
*1107 FILLER_0_19_251
*1108 FILLER_0_19_259
*1109 FILLER_0_19_266
*1110 FILLER_0_19_277
*1111 FILLER_0_19_289
*1112 FILLER_0_19_3
*1113 FILLER_0_19_315
*1114 FILLER_0_19_327
*1115 FILLER_0_19_35
*1116 FILLER_0_19_71
*1117 FILLER_0_19_82
*1118 FILLER_0_19_90
*1119 FILLER_0_1_105
*1120 FILLER_0_1_111
*1121 FILLER_0_1_113
*1122 FILLER_0_1_125
*1123 FILLER_0_1_137
*1124 FILLER_0_1_149
*1125 FILLER_0_1_15
*1126 FILLER_0_1_161
*1127 FILLER_0_1_167
*1128 FILLER_0_1_169
*1129 FILLER_0_1_181
*1130 FILLER_0_1_193
*1131 FILLER_0_1_205
*1132 FILLER_0_1_217
*1133 FILLER_0_1_223
*1134 FILLER_0_1_225
*1135 FILLER_0_1_237
*1136 FILLER_0_1_249
*1137 FILLER_0_1_261
*1138 FILLER_0_1_27
*1139 FILLER_0_1_273
*1140 FILLER_0_1_279
*1141 FILLER_0_1_281
*1142 FILLER_0_1_293
*1143 FILLER_0_1_3
*1144 FILLER_0_1_305
*1145 FILLER_0_1_317
*1146 FILLER_0_1_329
*1147 FILLER_0_1_39
*1148 FILLER_0_1_51
*1149 FILLER_0_1_55
*1150 FILLER_0_1_57
*1151 FILLER_0_1_69
*1152 FILLER_0_1_81
*1153 FILLER_0_1_93
*1154 FILLER_0_20_11
*1155 FILLER_0_20_123
*1156 FILLER_0_20_135
*1157 FILLER_0_20_139
*1158 FILLER_0_20_141
*1159 FILLER_0_20_147
*1160 FILLER_0_20_151
*1161 FILLER_0_20_163
*1162 FILLER_0_20_171
*1163 FILLER_0_20_192
*1164 FILLER_0_20_205
*1165 FILLER_0_20_210
*1166 FILLER_0_20_231
*1167 FILLER_0_20_239
*1168 FILLER_0_20_247
*1169 FILLER_0_20_251
*1170 FILLER_0_20_253
*1171 FILLER_0_20_287
*1172 FILLER_0_20_29
*1173 FILLER_0_20_299
*1174 FILLER_0_20_3
*1175 FILLER_0_20_307
*1176 FILLER_0_20_329
*1177 FILLER_0_20_63
*1178 FILLER_0_20_80
*1179 FILLER_0_20_98
*1180 FILLER_0_21_108
*1181 FILLER_0_21_113
*1182 FILLER_0_21_125
*1183 FILLER_0_21_137
*1184 FILLER_0_21_15
*1185 FILLER_0_21_160
*1186 FILLER_0_21_169
*1187 FILLER_0_21_173
*1188 FILLER_0_21_177
*1189 FILLER_0_21_206
*1190 FILLER_0_21_218
*1191 FILLER_0_21_269
*1192 FILLER_0_21_281
*1193 FILLER_0_21_3
*1194 FILLER_0_21_309
*1195 FILLER_0_21_333
*1196 FILLER_0_21_35
*1197 FILLER_0_21_43
*1198 FILLER_0_21_48
*1199 FILLER_0_21_77
*1200 FILLER_0_22_11
*1201 FILLER_0_22_121
*1202 FILLER_0_22_129
*1203 FILLER_0_22_141
*1204 FILLER_0_22_190
*1205 FILLER_0_22_208
*1206 FILLER_0_22_296
*1207 FILLER_0_22_3
*1208 FILLER_0_22_309
*1209 FILLER_0_22_321
*1210 FILLER_0_22_46
*1211 FILLER_0_22_83
*1212 FILLER_0_22_85
*1213 FILLER_0_22_93
*1214 FILLER_0_23_105
*1215 FILLER_0_23_111
*1216 FILLER_0_23_122
*1217 FILLER_0_23_130
*1218 FILLER_0_23_155
*1219 FILLER_0_23_167
*1220 FILLER_0_23_169
*1221 FILLER_0_23_223
*1222 FILLER_0_23_241
*1223 FILLER_0_23_245
*1224 FILLER_0_23_249
*1225 FILLER_0_23_259
*1226 FILLER_0_23_3
*1227 FILLER_0_23_301
*1228 FILLER_0_23_308
*1229 FILLER_0_23_326
*1230 FILLER_0_23_334
*1231 FILLER_0_23_34
*1232 FILLER_0_23_82
*1233 FILLER_0_24_161
*1234 FILLER_0_24_190
*1235 FILLER_0_24_232
*1236 FILLER_0_24_242
*1237 FILLER_0_24_250
*1238 FILLER_0_24_253
*1239 FILLER_0_24_26
*1240 FILLER_0_24_267
*1241 FILLER_0_24_3
*1242 FILLER_0_24_307
*1243 FILLER_0_24_328
*1244 FILLER_0_24_334
*1245 FILLER_0_24_74
*1246 FILLER_0_24_85
*1247 FILLER_0_25_108
*1248 FILLER_0_25_121
*1249 FILLER_0_25_161
*1250 FILLER_0_25_187
*1251 FILLER_0_25_215
*1252 FILLER_0_25_239
*1253 FILLER_0_25_251
*1254 FILLER_0_25_267
*1255 FILLER_0_25_279
*1256 FILLER_0_25_297
*1257 FILLER_0_25_3
*1258 FILLER_0_25_307
*1259 FILLER_0_25_330
*1260 FILLER_0_25_334
*1261 FILLER_0_25_46
*1262 FILLER_0_26_116
*1263 FILLER_0_26_128
*1264 FILLER_0_26_15
*1265 FILLER_0_26_158
*1266 FILLER_0_26_179
*1267 FILLER_0_26_192
*1268 FILLER_0_26_197
*1269 FILLER_0_26_22
*1270 FILLER_0_26_224
*1271 FILLER_0_26_241
*1272 FILLER_0_26_249
*1273 FILLER_0_26_253
*1274 FILLER_0_26_288
*1275 FILLER_0_26_29
*1276 FILLER_0_26_298
*1277 FILLER_0_26_3
*1278 FILLER_0_26_307
*1279 FILLER_0_26_309
*1280 FILLER_0_26_321
*1281 FILLER_0_26_333
*1282 FILLER_0_26_35
*1283 FILLER_0_26_44
*1284 FILLER_0_26_56
*1285 FILLER_0_26_60
*1286 FILLER_0_26_79
*1287 FILLER_0_26_83
*1288 FILLER_0_26_85
*1289 FILLER_0_27_110
*1290 FILLER_0_27_121
*1291 FILLER_0_27_133
*1292 FILLER_0_27_151
*1293 FILLER_0_27_163
*1294 FILLER_0_27_199
*1295 FILLER_0_27_219
*1296 FILLER_0_27_25
*1297 FILLER_0_27_252
*1298 FILLER_0_27_269
*1299 FILLER_0_27_273
*1300 FILLER_0_27_279
*1301 FILLER_0_27_288
*1302 FILLER_0_27_296
*1303 FILLER_0_27_3
*1304 FILLER_0_27_304
*1305 FILLER_0_27_316
*1306 FILLER_0_27_33
*1307 FILLER_0_27_330
*1308 FILLER_0_27_334
*1309 FILLER_0_27_50
*1310 FILLER_0_27_57
*1311 FILLER_0_27_80
*1312 FILLER_0_27_92
*1313 FILLER_0_28_124
*1314 FILLER_0_28_132
*1315 FILLER_0_28_146
*1316 FILLER_0_28_163
*1317 FILLER_0_28_194
*1318 FILLER_0_28_197
*1319 FILLER_0_28_209
*1320 FILLER_0_28_221
*1321 FILLER_0_28_245
*1322 FILLER_0_28_251
*1323 FILLER_0_28_253
*1324 FILLER_0_28_265
*1325 FILLER_0_28_277
*1326 FILLER_0_28_289
*1327 FILLER_0_28_299
*1328 FILLER_0_28_3
*1329 FILLER_0_28_307
*1330 FILLER_0_28_309
*1331 FILLER_0_28_330
*1332 FILLER_0_28_334
*1333 FILLER_0_28_38
*1334 FILLER_0_28_77
*1335 FILLER_0_28_93
*1336 FILLER_0_29_11
*1337 FILLER_0_29_113
*1338 FILLER_0_29_126
*1339 FILLER_0_29_16
*1340 FILLER_0_29_165
*1341 FILLER_0_29_177
*1342 FILLER_0_29_189
*1343 FILLER_0_29_218
*1344 FILLER_0_29_225
*1345 FILLER_0_29_26
*1346 FILLER_0_29_261
*1347 FILLER_0_29_277
*1348 FILLER_0_29_281
*1349 FILLER_0_29_290
*1350 FILLER_0_29_3
*1351 FILLER_0_29_326
*1352 FILLER_0_29_334
*1353 FILLER_0_29_39
*1354 FILLER_0_29_50
*1355 FILLER_0_29_72
*1356 FILLER_0_29_80
*1357 FILLER_0_29_90
*1358 FILLER_0_29_94
*1359 FILLER_0_2_109
*1360 FILLER_0_2_121
*1361 FILLER_0_2_133
*1362 FILLER_0_2_139
*1363 FILLER_0_2_141
*1364 FILLER_0_2_15
*1365 FILLER_0_2_153
*1366 FILLER_0_2_165
*1367 FILLER_0_2_177
*1368 FILLER_0_2_189
*1369 FILLER_0_2_195
*1370 FILLER_0_2_197
*1371 FILLER_0_2_209
*1372 FILLER_0_2_221
*1373 FILLER_0_2_233
*1374 FILLER_0_2_245
*1375 FILLER_0_2_251
*1376 FILLER_0_2_253
*1377 FILLER_0_2_265
*1378 FILLER_0_2_27
*1379 FILLER_0_2_277
*1380 FILLER_0_2_289
*1381 FILLER_0_2_29
*1382 FILLER_0_2_3
*1383 FILLER_0_2_301
*1384 FILLER_0_2_307
*1385 FILLER_0_2_309
*1386 FILLER_0_2_321
*1387 FILLER_0_2_333
*1388 FILLER_0_2_41
*1389 FILLER_0_2_53
*1390 FILLER_0_2_65
*1391 FILLER_0_2_77
*1392 FILLER_0_2_83
*1393 FILLER_0_2_85
*1394 FILLER_0_2_97
*1395 FILLER_0_30_111
*1396 FILLER_0_30_122
*1397 FILLER_0_30_141
*1398 FILLER_0_30_15
*1399 FILLER_0_30_165
*1400 FILLER_0_30_182
*1401 FILLER_0_30_19
*1402 FILLER_0_30_230
*1403 FILLER_0_30_249
*1404 FILLER_0_30_259
*1405 FILLER_0_30_27
*1406 FILLER_0_30_3
*1407 FILLER_0_30_303
*1408 FILLER_0_30_307
*1409 FILLER_0_30_309
*1410 FILLER_0_30_331
*1411 FILLER_0_30_45
*1412 FILLER_0_30_55
*1413 FILLER_0_30_64
*1414 FILLER_0_30_76
*1415 FILLER_0_30_85
*1416 FILLER_0_31_100
*1417 FILLER_0_31_124
*1418 FILLER_0_31_143
*1419 FILLER_0_31_185
*1420 FILLER_0_31_193
*1421 FILLER_0_31_221
*1422 FILLER_0_31_231
*1423 FILLER_0_31_275
*1424 FILLER_0_31_279
*1425 FILLER_0_31_289
*1426 FILLER_0_31_298
*1427 FILLER_0_31_3
*1428 FILLER_0_31_332
*1429 FILLER_0_31_34
*1430 FILLER_0_31_65
*1431 FILLER_0_31_71
*1432 FILLER_0_31_84
*1433 FILLER_0_31_96
*1434 FILLER_0_32_147
*1435 FILLER_0_32_152
*1436 FILLER_0_32_166
*1437 FILLER_0_32_185
*1438 FILLER_0_32_193
*1439 FILLER_0_32_197
*1440 FILLER_0_32_203
*1441 FILLER_0_32_211
*1442 FILLER_0_32_222
*1443 FILLER_0_32_244
*1444 FILLER_0_32_253
*1445 FILLER_0_32_261
*1446 FILLER_0_32_27
*1447 FILLER_0_32_270
*1448 FILLER_0_32_282
*1449 FILLER_0_32_29
*1450 FILLER_0_32_294
*1451 FILLER_0_32_3
*1452 FILLER_0_32_306
*1453 FILLER_0_32_309
*1454 FILLER_0_32_321
*1455 FILLER_0_32_333
*1456 FILLER_0_32_58
*1457 FILLER_0_32_66
*1458 FILLER_0_32_7
*1459 FILLER_0_32_83
*1460 FILLER_0_32_93
*1461 FILLER_0_33_107
*1462 FILLER_0_33_111
*1463 FILLER_0_33_134
*1464 FILLER_0_33_140
*1465 FILLER_0_33_150
*1466 FILLER_0_33_177
*1467 FILLER_0_33_195
*1468 FILLER_0_33_203
*1469 FILLER_0_33_222
*1470 FILLER_0_33_248
*1471 FILLER_0_33_27
*1472 FILLER_0_33_276
*1473 FILLER_0_33_289