*SPEF "ieee 1481-1999"
*DESIGN "tt_um_kwilke_cdc_fifo"
*DATE "03:26:54 Friday April 05, 2024"
*VENDOR "The OpenROAD Project"
*PROGRAM "OpenROAD"
*VERSION "0889970d1790a2617e69f253221b8bd7626e51dc"
*DESIGN_FLOW "NAME_SCOPE LOCAL" "PIN_CAP NONE"
*DIVIDER /
*DELIMITER :
*BUS_DELIMITER []
*T_UNIT 1 NS
*C_UNIT 1 PF
*R_UNIT 1 OHM
*L_UNIT 1 HENRY

*NAME_MAP
*3 clk
*4 ena
*5 rst_n
*6 ui_in[0]
*7 ui_in[1]
*8 ui_in[2]
*9 ui_in[3]
*10 ui_in[4]
*11 ui_in[5]
*12 ui_in[6]
*13 ui_in[7]
*14 uio_in[0]
*15 uio_in[1]
*16 uio_in[2]
*17 uio_in[3]
*18 uio_in[4]
*19 uio_in[5]
*20 uio_in[6]
*21 uio_in[7]
*22 net21
*23 net22
*24 net23
*25 net24
*26 net25
*27 net26
*28 net27
*29 net28
*30 net29
*31 net30
*32 net31
*33 net32
*34 net33
*35 net34
*36 net35
*37 net36
*38 uo_out[0]
*39 uo_out[1]
*40 net37
*41 net38
*42 uo_out[4]
*43 uo_out[5]
*44 uo_out[6]
*45 uo_out[7]
*46 _000_
*47 _001_
*48 _002_
*49 _003_
*50 _004_
*51 _005_
*52 _006_
*53 _007_
*54 _008_
*55 _009_
*56 _010_
*57 _011_
*58 _012_
*59 _013_
*60 _014_
*61 _015_
*62 _016_
*63 _017_
*64 _018_
*65 _019_
*66 _020_
*67 _021_
*68 _022_
*69 _023_
*70 _024_
*71 _025_
*72 _026_
*73 _027_
*74 _028_
*75 _029_
*76 _030_
*77 _031_
*78 _032_
*79 _033_
*80 _034_
*81 _035_
*82 _036_
*83 _037_
*84 _038_
*85 _039_
*86 _040_
*87 _041_
*88 _042_
*89 _043_
*90 _044_
*91 _045_
*92 _046_
*93 _047_
*94 _048_
*95 _049_
*96 _050_
*97 _051_
*98 _052_
*99 _053_
*100 _054_
*101 _055_
*102 _056_
*103 _057_
*104 _058_
*105 _059_
*106 _060_
*107 _061_
*108 _062_
*109 _063_
*110 _064_
*111 _065_
*112 _066_
*113 _067_
*114 _068_
*115 _069_
*116 _070_
*117 _071_
*118 _072_
*119 _073_
*120 _074_
*121 _075_
*122 _076_
*123 _077_
*124 _078_
*125 _079_
*126 _080_
*127 _081_
*128 _082_
*129 _083_
*130 _084_
*131 _085_
*132 _086_
*133 _087_
*134 _088_
*135 _089_
*136 _090_
*137 _091_
*138 _092_
*139 _093_
*140 _094_
*141 _095_
*142 _096_
*143 _097_
*144 _098_
*145 _099_
*146 _100_
*147 _101_
*148 _102_
*149 _103_
*150 _104_
*151 _105_
*152 _106_
*153 _107_
*154 _108_
*155 _109_
*156 _110_
*157 _111_
*158 _112_
*159 _113_
*160 _114_
*161 _115_
*162 _116_
*163 _117_
*164 _118_
*165 _119_
*166 _120_
*167 _121_
*168 _122_
*169 _123_
*170 _124_
*171 _125_
*172 _126_
*173 _127_
*174 _128_
*175 _129_
*176 _130_
*177 _131_
*178 _132_
*179 _133_
*180 _134_
*181 _135_
*182 _136_
*183 _137_
*184 _138_
*185 _139_
*186 _140_
*187 _141_
*188 _142_
*189 _143_
*190 _144_
*191 _145_
*192 _146_
*193 _147_
*194 _148_
*195 _149_
*196 _150_
*197 _151_
*198 _152_
*199 _153_
*200 _154_
*201 _155_
*202 _156_
*203 _157_
*204 _158_
*205 _159_
*206 _160_
*207 _161_
*208 _162_
*209 _163_
*210 _164_
*211 _165_
*212 _166_
*213 _167_
*214 _168_
*215 _169_
*216 _170_
*217 _171_
*218 _172_
*219 _173_
*220 _174_
*221 _175_
*222 _176_
*223 _177_
*224 _178_
*225 _179_
*226 _180_
*227 _181_
*228 _182_
*229 _183_
*230 _184_
*231 _185_
*232 _186_
*233 _187_
*234 _188_
*235 _189_
*236 _190_
*237 _191_
*238 _192_
*239 _193_
*240 _194_
*241 _195_
*242 _196_
*243 _197_
*244 _198_
*245 _199_
*246 _200_
*247 _201_
*248 _202_
*249 _203_
*250 _204_
*251 _205_
*252 _206_
*253 _207_
*254 _208_
*255 _209_
*256 _210_
*257 _211_
*258 _212_
*259 _213_
*260 _214_
*261 _215_
*262 _216_
*263 _217_
*264 _218_
*265 _219_
*266 _220_
*267 _221_
*268 _222_
*269 _223_
*270 _224_
*271 _225_
*272 _226_
*273 _227_
*274 _228_
*275 _229_
*276 _230_
*277 _231_
*278 _232_
*279 _233_
*280 _234_
*281 _235_
*282 _236_
*283 _237_
*284 _238_
*285 _239_
*286 _240_
*287 _241_
*288 _242_
*289 _243_
*290 _244_
*291 _245_
*292 _246_
*293 _247_
*294 _248_
*295 _249_
*296 _250_
*297 _251_
*298 _252_
*299 _253_
*300 _254_
*301 _255_
*302 _256_
*303 _257_
*304 _258_
*305 _259_
*306 _260_
*307 _261_
*308 _262_
*309 _263_
*310 _264_
*311 _265_
*312 kwilke_fifo\.empty
*313 kwilke_fifo\.full
*314 kwilke_fifo\.memory\.memory\[0\]\[0\]
*315 kwilke_fifo\.memory\.memory\[0\]\[1\]
*316 kwilke_fifo\.memory\.memory\[0\]\[2\]
*317 kwilke_fifo\.memory\.memory\[0\]\[3\]
*318 kwilke_fifo\.memory\.memory\[10\]\[0\]
*319 kwilke_fifo\.memory\.memory\[10\]\[1\]
*320 kwilke_fifo\.memory\.memory\[10\]\[2\]
*321 kwilke_fifo\.memory\.memory\[10\]\[3\]
*322 kwilke_fifo\.memory\.memory\[11\]\[0\]
*323 kwilke_fifo\.memory\.memory\[11\]\[1\]
*324 kwilke_fifo\.memory\.memory\[11\]\[2\]
*325 kwilke_fifo\.memory\.memory\[11\]\[3\]
*326 kwilke_fifo\.memory\.memory\[12\]\[0\]
*327 kwilke_fifo\.memory\.memory\[12\]\[1\]
*328 kwilke_fifo\.memory\.memory\[12\]\[2\]
*329 kwilke_fifo\.memory\.memory\[12\]\[3\]
*330 kwilke_fifo\.memory\.memory\[13\]\[0\]
*331 kwilke_fifo\.memory\.memory\[13\]\[1\]
*332 kwilke_fifo\.memory\.memory\[13\]\[2\]
*333 kwilke_fifo\.memory\.memory\[13\]\[3\]
*334 kwilke_fifo\.memory\.memory\[14\]\[0\]
*335 kwilke_fifo\.memory\.memory\[14\]\[1\]
*336 kwilke_fifo\.memory\.memory\[14\]\[2\]
*337 kwilke_fifo\.memory\.memory\[14\]\[3\]
*338 kwilke_fifo\.memory\.memory\[15\]\[0\]
*339 kwilke_fifo\.memory\.memory\[15\]\[1\]
*340 kwilke_fifo\.memory\.memory\[15\]\[2\]
*341 kwilke_fifo\.memory\.memory\[15\]\[3\]
*342 kwilke_fifo\.memory\.memory\[1\]\[0\]
*343 kwilke_fifo\.memory\.memory\[1\]\[1\]
*344 kwilke_fifo\.memory\.memory\[1\]\[2\]
*345 kwilke_fifo\.memory\.memory\[1\]\[3\]
*346 kwilke_fifo\.memory\.memory\[2\]\[0\]
*347 kwilke_fifo\.memory\.memory\[2\]\[1\]
*348 kwilke_fifo\.memory\.memory\[2\]\[2\]
*349 kwilke_fifo\.memory\.memory\[2\]\[3\]
*350 kwilke_fifo\.memory\.memory\[3\]\[0\]
*351 kwilke_fifo\.memory\.memory\[3\]\[1\]
*352 kwilke_fifo\.memory\.memory\[3\]\[2\]
*353 kwilke_fifo\.memory\.memory\[3\]\[3\]
*354 kwilke_fifo\.memory\.memory\[4\]\[0\]
*355 kwilke_fifo\.memory\.memory\[4\]\[1\]
*356 kwilke_fifo\.memory\.memory\[4\]\[2\]
*357 kwilke_fifo\.memory\.memory\[4\]\[3\]
*358 kwilke_fifo\.memory\.memory\[5\]\[0\]
*359 kwilke_fifo\.memory\.memory\[5\]\[1\]
*360 kwilke_fifo\.memory\.memory\[5\]\[2\]
*361 kwilke_fifo\.memory\.memory\[5\]\[3\]
*362 kwilke_fifo\.memory\.memory\[6\]\[0\]
*363 kwilke_fifo\.memory\.memory\[6\]\[1\]
*364 kwilke_fifo\.memory\.memory\[6\]\[2\]
*365 kwilke_fifo\.memory\.memory\[6\]\[3\]
*366 kwilke_fifo\.memory\.memory\[7\]\[0\]
*367 kwilke_fifo\.memory\.memory\[7\]\[1\]
*368 kwilke_fifo\.memory\.memory\[7\]\[2\]
*369 kwilke_fifo\.memory\.memory\[7\]\[3\]
*370 kwilke_fifo\.memory\.memory\[8\]\[0\]
*371 kwilke_fifo\.memory\.memory\[8\]\[1\]
*372 kwilke_fifo\.memory\.memory\[8\]\[2\]
*373 kwilke_fifo\.memory\.memory\[8\]\[3\]
*374 kwilke_fifo\.memory\.memory\[9\]\[0\]
*375 kwilke_fifo\.memory\.memory\[9\]\[1\]
*376 kwilke_fifo\.memory\.memory\[9\]\[2\]
*377 kwilke_fifo\.memory\.memory\[9\]\[3\]
*378 kwilke_fifo\.memory\.read_address\[0\]
*379 kwilke_fifo\.memory\.read_address\[1\]
*380 kwilke_fifo\.memory\.read_address\[2\]
*381 kwilke_fifo\.memory\.read_address\[3\]
*382 kwilke_fifo\.memory\.write_address\[0\]
*383 kwilke_fifo\.memory\.write_address\[1\]
*384 kwilke_fifo\.memory\.write_address\[2\]
*385 kwilke_fifo\.memory\.write_address\[3\]
*386 kwilke_fifo\.read_address_gray_postsync\[0\]
*387 kwilke_fifo\.read_address_gray_postsync\[1\]
*388 kwilke_fifo\.read_address_gray_postsync\[2\]
*389 kwilke_fifo\.read_address_gray_postsync\[3\]
*390 kwilke_fifo\.read_address_gray_presync\[0\]
*391 kwilke_fifo\.read_address_gray_presync\[1\]
*392 kwilke_fifo\.read_address_gray_presync\[2\]
*393 kwilke_fifo\.read_address_sync\.data\[0\]
*394 kwilke_fifo\.read_address_sync\.data\[1\]
*395 kwilke_fifo\.read_address_sync\.data\[2\]
*396 kwilke_fifo\.read_address_sync\.data\[3\]
*397 kwilke_fifo\.readstate\.write_addr_decode\.binary\[3\]
*398 kwilke_fifo\.readstate\.write_addr_decode\.gray\[0\]
*399 kwilke_fifo\.readstate\.write_addr_decode\.gray\[1\]
*400 kwilke_fifo\.readstate\.write_addr_decode\.gray\[2\]
*401 kwilke_fifo\.write_address_gray_presync\[0\]
*402 kwilke_fifo\.write_address_gray_presync\[1\]
*403 kwilke_fifo\.write_address_gray_presync\[2\]
*404 kwilke_fifo\.write_address_sync\.data\[0\]
*405 kwilke_fifo\.write_address_sync\.data\[1\]
*406 kwilke_fifo\.write_address_sync\.data\[2\]
*407 kwilke_fifo\.write_address_sync\.data\[3\]
*408 net1
*409 net10
*410 net11
*411 net12
*412 net13
*413 net14
*414 net15
*415 net16
*416 net17
*417 net18
*418 net19
*419 net2
*420 net20
*421 net3
*422 net4
*423 net5
*424 net6
*425 net7
*426 net8
*427 net9
*428 FILLER_0_0_109
*429 FILLER_0_0_113
*430 FILLER_0_0_125
*431 FILLER_0_0_137
*432 FILLER_0_0_141
*433 FILLER_0_0_15
*434 FILLER_0_0_153
*435 FILLER_0_0_165
*436 FILLER_0_0_169
*437 FILLER_0_0_181
*438 FILLER_0_0_193
*439 FILLER_0_0_197
*440 FILLER_0_0_209
*441 FILLER_0_0_221
*442 FILLER_0_0_225
*443 FILLER_0_0_237
*444 FILLER_0_0_249
*445 FILLER_0_0_253
*446 FILLER_0_0_265
*447 FILLER_0_0_27
*448 FILLER_0_0_277
*449 FILLER_0_0_281
*450 FILLER_0_0_29
*451 FILLER_0_0_293
*452 FILLER_0_0_3
*453 FILLER_0_0_305
*454 FILLER_0_0_309
*455 FILLER_0_0_321
*456 FILLER_0_0_333
*457 FILLER_0_0_41
*458 FILLER_0_0_53
*459 FILLER_0_0_57
*460 FILLER_0_0_69
*461 FILLER_0_0_81
*462 FILLER_0_0_85
*463 FILLER_0_0_97
*464 FILLER_0_10_109
*465 FILLER_0_10_121
*466 FILLER_0_10_133
*467 FILLER_0_10_139
*468 FILLER_0_10_141
*469 FILLER_0_10_15
*470 FILLER_0_10_153
*471 FILLER_0_10_165
*472 FILLER_0_10_177
*473 FILLER_0_10_189
*474 FILLER_0_10_195
*475 FILLER_0_10_197
*476 FILLER_0_10_209
*477 FILLER_0_10_221
*478 FILLER_0_10_233
*479 FILLER_0_10_245
*480 FILLER_0_10_251
*481 FILLER_0_10_253
*482 FILLER_0_10_265
*483 FILLER_0_10_27
*484 FILLER_0_10_277
*485 FILLER_0_10_289
*486 FILLER_0_10_29
*487 FILLER_0_10_3
*488 FILLER_0_10_301
*489 FILLER_0_10_307
*490 FILLER_0_10_309
*491 FILLER_0_10_321
*492 FILLER_0_10_333
*493 FILLER_0_10_41
*494 FILLER_0_10_53
*495 FILLER_0_10_65
*496 FILLER_0_10_77
*497 FILLER_0_10_83
*498 FILLER_0_10_85
*499 FILLER_0_10_97
*500 FILLER_0_11_105
*501 FILLER_0_11_111
*502 FILLER_0_11_113
*503 FILLER_0_11_125
*504 FILLER_0_11_137
*505 FILLER_0_11_149
*506 FILLER_0_11_15
*507 FILLER_0_11_161
*508 FILLER_0_11_167
*509 FILLER_0_11_169
*510 FILLER_0_11_181
*511 FILLER_0_11_193
*512 FILLER_0_11_205
*513 FILLER_0_11_217
*514 FILLER_0_11_223
*515 FILLER_0_11_225
*516 FILLER_0_11_237
*517 FILLER_0_11_249
*518 FILLER_0_11_261
*519 FILLER_0_11_27
*520 FILLER_0_11_273
*521 FILLER_0_11_279
*522 FILLER_0_11_281
*523 FILLER_0_11_293
*524 FILLER_0_11_3
*525 FILLER_0_11_305
*526 FILLER_0_11_317
*527 FILLER_0_11_329
*528 FILLER_0_11_39
*529 FILLER_0_11_51
*530 FILLER_0_11_55
*531 FILLER_0_11_57
*532 FILLER_0_11_69
*533 FILLER_0_11_81
*534 FILLER_0_11_93
*535 FILLER_0_12_109
*536 FILLER_0_12_121
*537 FILLER_0_12_133
*538 FILLER_0_12_139
*539 FILLER_0_12_141
*540 FILLER_0_12_15
*541 FILLER_0_12_153
*542 FILLER_0_12_165
*543 FILLER_0_12_177
*544 FILLER_0_12_189
*545 FILLER_0_12_195
*546 FILLER_0_12_197
*547 FILLER_0_12_209
*548 FILLER_0_12_221
*549 FILLER_0_12_233
*550 FILLER_0_12_245
*551 FILLER_0_12_251
*552 FILLER_0_12_253
*553 FILLER_0_12_265
*554 FILLER_0_12_27
*555 FILLER_0_12_277
*556 FILLER_0_12_289
*557 FILLER_0_12_29
*558 FILLER_0_12_3
*559 FILLER_0_12_301
*560 FILLER_0_12_307
*561 FILLER_0_12_309
*562 FILLER_0_12_321
*563 FILLER_0_12_333
*564 FILLER_0_12_41
*565 FILLER_0_12_53
*566 FILLER_0_12_65
*567 FILLER_0_12_77
*568 FILLER_0_12_83
*569 FILLER_0_12_85
*570 FILLER_0_12_97
*571 FILLER_0_13_105
*572 FILLER_0_13_111
*573 FILLER_0_13_113
*574 FILLER_0_13_125
*575 FILLER_0_13_137
*576 FILLER_0_13_149
*577 FILLER_0_13_15
*578 FILLER_0_13_161
*579 FILLER_0_13_167
*580 FILLER_0_13_169
*581 FILLER_0_13_181
*582 FILLER_0_13_193
*583 FILLER_0_13_205
*584 FILLER_0_13_217
*585 FILLER_0_13_223
*586 FILLER_0_13_225
*587 FILLER_0_13_237
*588 FILLER_0_13_249
*589 FILLER_0_13_261
*590 FILLER_0_13_27
*591 FILLER_0_13_273
*592 FILLER_0_13_279
*593 FILLER_0_13_281
*594 FILLER_0_13_293
*595 FILLER_0_13_3
*596 FILLER_0_13_305
*597 FILLER_0_13_317
*598 FILLER_0_13_329
*599 FILLER_0_13_39
*600 FILLER_0_13_51
*601 FILLER_0_13_55
*602 FILLER_0_13_57
*603 FILLER_0_13_69
*604 FILLER_0_13_81
*605 FILLER_0_13_93
*606 FILLER_0_14_109
*607 FILLER_0_14_121
*608 FILLER_0_14_133
*609 FILLER_0_14_139
*610 FILLER_0_14_141
*611 FILLER_0_14_15
*612 FILLER_0_14_153
*613 FILLER_0_14_165
*614 FILLER_0_14_177
*615 FILLER_0_14_189
*616 FILLER_0_14_195
*617 FILLER_0_14_197
*618 FILLER_0_14_209
*619 FILLER_0_14_221
*620 FILLER_0_14_233
*621 FILLER_0_14_245
*622 FILLER_0_14_251
*623 FILLER_0_14_253
*624 FILLER_0_14_265
*625 FILLER_0_14_27
*626 FILLER_0_14_277
*627 FILLER_0_14_289
*628 FILLER_0_14_29
*629 FILLER_0_14_3
*630 FILLER_0_14_301
*631 FILLER_0_14_307
*632 FILLER_0_14_309
*633 FILLER_0_14_321
*634 FILLER_0_14_333
*635 FILLER_0_14_41
*636 FILLER_0_14_53
*637 FILLER_0_14_65
*638 FILLER_0_14_77
*639 FILLER_0_14_83
*640 FILLER_0_14_85
*641 FILLER_0_14_97
*642 FILLER_0_15_105
*643 FILLER_0_15_111
*644 FILLER_0_15_113
*645 FILLER_0_15_125
*646 FILLER_0_15_137
*647 FILLER_0_15_149
*648 FILLER_0_15_15
*649 FILLER_0_15_161
*650 FILLER_0_15_167
*651 FILLER_0_15_169
*652 FILLER_0_15_181
*653 FILLER_0_15_193
*654 FILLER_0_15_205
*655 FILLER_0_15_217
*656 FILLER_0_15_223
*657 FILLER_0_15_225
*658 FILLER_0_15_237
*659 FILLER_0_15_249
*660 FILLER_0_15_261
*661 FILLER_0_15_27
*662 FILLER_0_15_273
*663 FILLER_0_15_279
*664 FILLER_0_15_281
*665 FILLER_0_15_293
*666 FILLER_0_15_3
*667 FILLER_0_15_305
*668 FILLER_0_15_317
*669 FILLER_0_15_329
*670 FILLER_0_15_39
*671 FILLER_0_15_51
*672 FILLER_0_15_55
*673 FILLER_0_15_57
*674 FILLER_0_15_69
*675 FILLER_0_15_81
*676 FILLER_0_15_93
*677 FILLER_0_16_109
*678 FILLER_0_16_121
*679 FILLER_0_16_133
*680 FILLER_0_16_139
*681 FILLER_0_16_141
*682 FILLER_0_16_15
*683 FILLER_0_16_153
*684 FILLER_0_16_165
*685 FILLER_0_16_177
*686 FILLER_0_16_189
*687 FILLER_0_16_195
*688 FILLER_0_16_197
*689 FILLER_0_16_209
*690 FILLER_0_16_221
*691 FILLER_0_16_233
*692 FILLER_0_16_245
*693 FILLER_0_16_251
*694 FILLER_0_16_253
*695 FILLER_0_16_265
*696 FILLER_0_16_27
*697 FILLER_0_16_277
*698 FILLER_0_16_289
*699 FILLER_0_16_29
*700 FILLER_0_16_3
*701 FILLER_0_16_301
*702 FILLER_0_16_307
*703 FILLER_0_16_309
*704 FILLER_0_16_321
*705 FILLER_0_16_333
*706 FILLER_0_16_41
*707 FILLER_0_16_53
*708 FILLER_0_16_65
*709 FILLER_0_16_77
*710 FILLER_0_16_83
*711 FILLER_0_16_85
*712 FILLER_0_16_97
*713 FILLER_0_17_105
*714 FILLER_0_17_111
*715 FILLER_0_17_113
*716 FILLER_0_17_125
*717 FILLER_0_17_137
*718 FILLER_0_17_149
*719 FILLER_0_17_15
*720 FILLER_0_17_161
*721 FILLER_0_17_167
*722 FILLER_0_17_169
*723 FILLER_0_17_181
*724 FILLER_0_17_193
*725 FILLER_0_17_205
*726 FILLER_0_17_217
*727 FILLER_0_17_223
*728 FILLER_0_17_225
*729 FILLER_0_17_237
*730 FILLER_0_17_249
*731 FILLER_0_17_261
*732 FILLER_0_17_27
*733 FILLER_0_17_273
*734 FILLER_0_17_279
*735 FILLER_0_17_281
*736 FILLER_0_17_293
*737 FILLER_0_17_3
*738 FILLER_0_17_305
*739 FILLER_0_17_317
*740 FILLER_0_17_329
*741 FILLER_0_17_39
*742 FILLER_0_17_51
*743 FILLER_0_17_55
*744 FILLER_0_17_57
*745 FILLER_0_17_69
*746 FILLER_0_17_81
*747 FILLER_0_17_93
*748 FILLER_0_18_109
*749 FILLER_0_18_121
*750 FILLER_0_18_133
*751 FILLER_0_18_139
*752 FILLER_0_18_141
*753 FILLER_0_18_15
*754 FILLER_0_18_153
*755 FILLER_0_18_165
*756 FILLER_0_18_177
*757 FILLER_0_18_189
*758 FILLER_0_18_195
*759 FILLER_0_18_197
*760 FILLER_0_18_209
*761 FILLER_0_18_221
*762 FILLER_0_18_233
*763 FILLER_0_18_245
*764 FILLER_0_18_251
*765 FILLER_0_18_253
*766 FILLER_0_18_265
*767 FILLER_0_18_27
*768 FILLER_0_18_277
*769 FILLER_0_18_289
*770 FILLER_0_18_29
*771 FILLER_0_18_3
*772 FILLER_0_18_301
*773 FILLER_0_18_307
*774 FILLER_0_18_309
*775 FILLER_0_18_321
*776 FILLER_0_18_333
*777 FILLER_0_18_41
*778 FILLER_0_18_53
*779 FILLER_0_18_65
*780 FILLER_0_18_77
*781 FILLER_0_18_83
*782 FILLER_0_18_85
*783 FILLER_0_18_97
*784 FILLER_0_19_105
*785 FILLER_0_19_111
*786 FILLER_0_19_113
*787 FILLER_0_19_125
*788 FILLER_0_19_140
*789 FILLER_0_19_148
*790 FILLER_0_19_15
*791 FILLER_0_19_154
*792 FILLER_0_19_166
*793 FILLER_0_19_169
*794 FILLER_0_19_181
*795 FILLER_0_19_193
*796 FILLER_0_19_205
*797 FILLER_0_19_217
*798 FILLER_0_19_223
*799 FILLER_0_19_225
*800 FILLER_0_19_237
*801 FILLER_0_19_249
*802 FILLER_0_19_261
*803 FILLER_0_19_27
*804 FILLER_0_19_273
*805 FILLER_0_19_279
*806 FILLER_0_19_281
*807 FILLER_0_19_293
*808 FILLER_0_19_3
*809 FILLER_0_19_305
*810 FILLER_0_19_317
*811 FILLER_0_19_329
*812 FILLER_0_19_39
*813 FILLER_0_19_51
*814 FILLER_0_19_55
*815 FILLER_0_19_57
*816 FILLER_0_19_69
*817 FILLER_0_19_81
*818 FILLER_0_19_93
*819 FILLER_0_1_105
*820 FILLER_0_1_111
*821 FILLER_0_1_113
*822 FILLER_0_1_125
*823 FILLER_0_1_137
*824 FILLER_0_1_149
*825 FILLER_0_1_15
*826 FILLER_0_1_161
*827 FILLER_0_1_167
*828 FILLER_0_1_169
*829 FILLER_0_1_181
*830 FILLER_0_1_193
*831 FILLER_0_1_205
*832 FILLER_0_1_217
*833 FILLER_0_1_223
*834 FILLER_0_1_225
*835 FILLER_0_1_237
*836 FILLER_0_1_249
*837 FILLER_0_1_261
*838 FILLER_0_1_27
*839 FILLER_0_1_273
*840 FILLER_0_1_279
*841 FILLER_0_1_281
*842 FILLER_0_1_293
*843 FILLER_0_1_3
*844 FILLER_0_1_305
*845 FILLER_0_1_317
*846 FILLER_0_1_329
*847 FILLER_0_1_39
*848 FILLER_0_1_51
*849 FILLER_0_1_55
*850 FILLER_0_1_57
*851 FILLER_0_1_69
*852 FILLER_0_1_81
*853 FILLER_0_1_93
*854 FILLER_0_20_103
*855 FILLER_0_20_115
*856 FILLER_0_20_123
*857 FILLER_0_20_144
*858 FILLER_0_20_15
*859 FILLER_0_20_173
*860 FILLER_0_20_185
*861 FILLER_0_20_191
*862 FILLER_0_20_195
*863 FILLER_0_20_213
*864 FILLER_0_20_225
*865 FILLER_0_20_237
*866 FILLER_0_20_249
*867 FILLER_0_20_253
*868 FILLER_0_20_261
*869 FILLER_0_20_27
*870 FILLER_0_20_273
*871 FILLER_0_20_285
*872 FILLER_0_20_29
*873 FILLER_0_20_297
*874 FILLER_0_20_3
*875 FILLER_0_20_305
*876 FILLER_0_20_309
*877 FILLER_0_20_321
*878 FILLER_0_20_333
*879 FILLER_0_20_41
*880 FILLER_0_20_45
*881 FILLER_0_20_62
*882 FILLER_0_20_88
*883 FILLER_0_21_108
*884 FILLER_0_21_113
*885 FILLER_0_21_126
*886 FILLER_0_21_15
*887 FILLER_0_21_178
*888 FILLER_0_21_186
*889 FILLER_0_21_205
*890 FILLER_0_21_217
*891 FILLER_0_21_223
*892 FILLER_0_21_225
*893 FILLER_0_21_237
*894 FILLER_0_21_274
*895 FILLER_0_21_281
*896 FILLER_0_21_293
*897 FILLER_0_21_3
*898 FILLER_0_21_305
*899 FILLER_0_21_317
*900 FILLER_0_21_329
*901 FILLER_0_21_54
*902 FILLER_0_21_69
*903 FILLER_0_22_106
*904 FILLER_0_22_127
*905 FILLER_0_22_141
*906 FILLER_0_22_147
*907 FILLER_0_22_15
*908 FILLER_0_22_164
*909 FILLER_0_22_188
*910 FILLER_0_22_195
*911 FILLER_0_22_215
*912 FILLER_0_22_223
*913 FILLER_0_22_234
*914 FILLER_0_22_242
*915 FILLER_0_22_251
*916 FILLER_0_22_253
*917 FILLER_0_22_280
*918 FILLER_0_22_29
*919 FILLER_0_22_292
*920 FILLER_0_22_296
*921 FILLER_0_22_3
*922 FILLER_0_22_300
*923 FILLER_0_22_312
*924 FILLER_0_22_324
*925 FILLER_0_22_332
*926 FILLER_0_22_58
*927 FILLER_0_23_105
*928 FILLER_0_23_111
*929 FILLER_0_23_113
*930 FILLER_0_23_124
*931 FILLER_0_23_136
*932 FILLER_0_23_148
*933 FILLER_0_23_15
*934 FILLER_0_23_159
*935 FILLER_0_23_167
*936 FILLER_0_23_169
*937 FILLER_0_23_204
*938 FILLER_0_23_208
*939 FILLER_0_23_21
*940 FILLER_0_23_218
*941 FILLER_0_23_233
*942 FILLER_0_23_265
*943 FILLER_0_23_281
*944 FILLER_0_23_3
*945 FILLER_0_23_324
*946 FILLER_0_23_332
*947 FILLER_0_23_38
*948 FILLER_0_23_44
*949 FILLER_0_23_54
*950 FILLER_0_23_57
*951 FILLER_0_23_69
*952 FILLER_0_23_93
*953 FILLER_0_24_109
*954 FILLER_0_24_129
*955 FILLER_0_24_137
*956 FILLER_0_24_141
*957 FILLER_0_24_15
*958 FILLER_0_24_169
*959 FILLER_0_24_181
*960 FILLER_0_24_193
*961 FILLER_0_24_197
*962 FILLER_0_24_20
*963 FILLER_0_24_205
*964 FILLER_0_24_217
*965 FILLER_0_24_237
*966 FILLER_0_24_279
*967 FILLER_0_24_296
*968 FILLER_0_24_3
*969 FILLER_0_24_312
*970 FILLER_0_24_316
*971 FILLER_0_24_324
*972 FILLER_0_24_332
*973 FILLER_0_24_38
*974 FILLER_0_24_42
*975 FILLER_0_24_54
*976 FILLER_0_24_66
*977 FILLER_0_24_78
*978 FILLER_0_24_83
*979 FILLER_0_24_85
*980 FILLER_0_24_97
*981 FILLER_0_25_100
*982 FILLER_0_25_138
*983 FILLER_0_25_142
*984 FILLER_0_25_169
*985 FILLER_0_25_181
*986 FILLER_0_25_193
*987 FILLER_0_25_223
*988 FILLER_0_25_233
*989 FILLER_0_25_245
*990 FILLER_0_25_253
*991 FILLER_0_25_277
*992 FILLER_0_25_281
*993 FILLER_0_25_3
*994 FILLER_0_25_30
*995 FILLER_0_25_334
*996 FILLER_0_25_50
*997 FILLER_0_25_66
*998 FILLER_0_25_74
*999 FILLER_0_26_101
*1000 FILLER_0_26_109
*1001 FILLER_0_26_11
*1002 FILLER_0_26_139
*1003 FILLER_0_26_141
*1004 FILLER_0_26_147
*1005 FILLER_0_26_151
*1006 FILLER_0_26_183
*1007 FILLER_0_26_195
*1008 FILLER_0_26_197
*1009 FILLER_0_26_230
*1010 FILLER_0_26_242
*1011 FILLER_0_26_250
*1012 FILLER_0_26_253
*1013 FILLER_0_26_264
*1014 FILLER_0_26_292
*1015 FILLER_0_26_3
*1016 FILLER_0_26_304
*1017 FILLER_0_26_309
*1018 FILLER_0_26_315
*1019 FILLER_0_26_319
*1020 FILLER_0_26_331
*1021 FILLER_0_26_38
*1022 FILLER_0_26_77
*1023 FILLER_0_26_82
*1024 FILLER_0_27_105
*1025 FILLER_0_27_111
*1026 FILLER_0_27_134
*1027 FILLER_0_27_146
*1028 FILLER_0_27_15
*1029 FILLER_0_27_169
*1030 FILLER_0_27_189
*1031 FILLER_0_27_199
*1032 FILLER_0_27_209
*1033 FILLER_0_27_223
*1034 FILLER_0_27_238
*1035 FILLER_0_27_242
*1036 FILLER_0_27_27
*1037 FILLER_0_27_276
*1038 FILLER_0_27_281
*1039 FILLER_0_27_290
*1040 FILLER_0_27_298
*1041 FILLER_0_27_3
*1042 FILLER_0_27_332
*1043 FILLER_0_27_39
*1044 FILLER_0_27_52
*1045 FILLER_0_27_57
*1046 FILLER_0_27_69
*1047 FILLER_0_27_79
*1048 FILLER_0_27_83
*1049 FILLER_0_27_93
*1050 FILLER_0_28_104
*1051 FILLER_0_28_108
*1052 FILLER_0_28_112
*1053 FILLER_0_28_136
*1054 FILLER_0_28_141
*1055 FILLER_0_28_164
*1056 FILLER_0_28_172
*1057 FILLER_0_28_190
*1058 FILLER_0_28_197
*1059 FILLER_0_28_234
*1060 FILLER_0_28_246
*1061 FILLER_0_28_26
*1062 FILLER_0_28_261
*1063 FILLER_0_28_276
*1064 FILLER_0_28_284
*1065 FILLER_0_28_29
*1066 FILLER_0_28_290
*1067 FILLER_0_28_3
*1068 FILLER_0_28_329
*1069 FILLER_0_28_37
*1070 FILLER_0_28_54
*1071 FILLER_0_28_66
*1072 FILLER_0_28_78
*1073 FILLER_0_28_82
*1074 FILLER_0_28_85
*1075 FILLER_0_28_9
*1076 FILLER_0_28_92
*1077 FILLER_0_29_100
*1078 FILLER_0_29_132
*1079 FILLER_0_29_138
*1080 FILLER_0_29_144
*1081 FILLER_0_29_159
*1082 FILLER_0_29_167
*1083 FILLER_0_29_169
*1084 FILLER_0_29_181
*1085 FILLER_0_29_193
*1086 FILLER_0_29_205
*1087 FILLER_0_29_237
*1088 FILLER_0_29_245
*1089 FILLER_0_29_251
*1090 FILLER_0_29_263
*1091 FILLER_0_29_275
*1092 FILLER_0_29_279
*1093 FILLER_0_29_3
*1094 FILLER_0_29_301
*1095 FILLER_0_29_46
*1096 FILLER_0_29_57
*1097 FILLER_0_29_65
*1098 FILLER_0_2_109
*1099 FILLER_0_2_121
*1100 FILLER_0_2_133
*1101 FILLER_0_2_139
*1102 FILLER_0_2_141
*1103 FILLER_0_2_15
*1104 FILLER_0_2_153
*1105 FILLER_0_2_165
*1106 FILLER_0_2_177
*1107 FILLER_0_2_189
*1108 FILLER_0_2_195
*1109 FILLER_0_2_197
*1110 FILLER_0_2_209
*1111 FILLER_0_2_221
*1112 FILLER_0_2_233
*1113 FILLER_0_2_245
*1114 FILLER_0_2_251
*1115 FILLER_0_2_253
*1116 FILLER_0_2_265
*1117 FILLER_0_2_27
*1118 FILLER_0_2_277
*1119 FILLER_0_2_289
*1120 FILLER_0_2_29
*1121 FILLER_0_2_3
*1122 FILLER_0_2_301
*1123 FILLER_0_2_307
*1124 FILLER_0_2_309
*1125 FILLER_0_2_321
*1126 FILLER_0_2_333
*1127 FILLER_0_2_41
*1128 FILLER_0_2_53
*1129 FILLER_0_2_65
*1130 FILLER_0_2_77
*1131 FILLER_0_2_83
*1132 FILLER_0_2_85
*1133 FILLER_0_2_97
*1134 FILLER_0_30_102
*1135 FILLER_0_30_128
*1136 FILLER_0_30_134
*1137 FILLER_0_30_141
*1138 FILLER_0_30_150
*1139 FILLER_0_30_159
*1140 FILLER_0_30_179
*1141 FILLER_0_30_191
*1142 FILLER_0_30_195
*1143 FILLER_0_30_197
*1144 FILLER_0_30_221
*1145 FILLER_0_30_245
*1146 FILLER_0_30_251
*1147 FILLER_0_30_256
*1148 FILLER_0_30_264
*1149 FILLER_0_30_276
*1150 FILLER_0_30_288
*1151 FILLER_0_30_29
*1152 FILLER_0_30_3
*1153 FILLER_0_30_300
*1154 FILLER_0_30_309
*1155 FILLER_0_30_313
*1156 FILLER_0_30_321
*1157 FILLER_0_30_333
*1158 FILLER_0_30_53
*1159 FILLER_0_30_78
*1160 FILLER_0_30_94
*1161 FILLER_0_31_104
*1162 FILLER_0_31_113
*1163 FILLER_0_31_121
*1164 FILLER_0_31_131
*1165 FILLER_0_31_15
*1166 FILLER_0_31_150
*1167 FILLER_0_31_166
*1168 FILLER_0_31_185
*1169 FILLER_0_31_19
*1170 FILLER_0_31_202
*1171 FILLER_0_31_223
*1172 FILLER_0_31_243
*1173 FILLER_0_31_255
*1174 FILLER_0_31_275
*1175 FILLER_0_31_279
*1176 FILLER_0_31_297
*1177 FILLER_0_31_3
*1178 FILLER_0_31_309
*1179 FILLER_0_31_321
*1180 FILLER_0_31_333
*1181 FILLER_0_31_47
*1182 FILLER_0_31_55
*1183 FILLER_0_31_57
*1184 FILLER_0_32_100
*1185 FILLER_0_32_112
*1186 FILLER_0_32_132
*1187 FILLER_0_32_148
*1188 FILLER_0_32_15
*1189 FILLER_0_32_157
*1190 FILLER_0_32_165
*1191 FILLER_0_32_206
*1192 FILLER_0_32_218
*1193 FILLER_0_32_22
*1194 FILLER_0_32_224
*1195 FILLER_0_32_234
*1196 FILLER_0_32_250
*1197 FILLER_0_32_253
*1198 FILLER_0_32_257
*1199 FILLER_0_32_286
*1200 FILLER_0_32_3
*1201 FILLER_0_32_325
*1202 FILLER_0_32_333
*1203 FILLER_0_32_41
*1204 FILLER_0_32_47
*1205 FILLER_0_32_51
*1206 FILLER_0_32_63
*1207 FILLER_0_32_78
*1208 FILLER_0_32_85
*1209 FILLER_0_33_108
*1210 FILLER_0_33_11
*1211 FILLER_0_33_113
*1212 FILLER_0_33_117
*1213 FILLER_0_33_134
*1214 FILLER_0_33_161
*1215 FILLER_0_33_167
*1216 FILLER_0_33_169
*1217 FILLER_0_33_187
*1218 FILLER_0_33_193
*1219 FILLER_0_33_205
*1220 FILLER_0_33_217
*1221 FILLER_0_33_223
*1222 FILLER_0_33_225
*1223 FILLER_0_33_233
*1224 FILLER_0_33_242
*1225 FILLER_0_33_281
*1226 FILLER_0_33_293
*1227 FILLER_0_33_3
*1228 FILLER_0_33_328
*1229 FILLER_0_33_334
*1230 FILLER_0_33_39
*1231 FILLER_0_33_66
*1232 FILLER_0_33_70
*1233 FILLER_0_33_82
*1234 FILLER_0_34_109
*1235 FILLER_0_34_115
*1236 FILLER_0_34_132
*1237 FILLER_0_34_148
*1238 FILLER_0_34_160
*1239 FILLER_0_34_172
*1240 FILLER_0_34_178
*1241 FILLER_0_34_193
*1242 FILLER_0_34_197
*1243 FILLER_0_34_209
*1244 FILLER_0_34_213
*1245 FILLER_0_34_226
*1246 FILLER_0_34_237
*1247 FILLER_0_34_249
*1248 FILLER_0_34_259
*1249 FILLER_0_34_263
*1250 FILLER_0_34_267
*1251 FILLER_0_34_274
*1252 FILLER_0_34_286
*1253 FILLER_0_34_29
*1254 FILLER_0_34_294
*1255 FILLER_0_34_3
*1256 FILLER_0_34_325
*1257 FILLER_0_34_333
*1258 FILLER_0_34_54
*1259 FILLER_0_34_78
*1260 FILLER_0_35_101
*1261 FILLER_0_35_109
*1262 FILLER_0_35_113
*1263 FILLER_0_35_131
*1264 FILLER_0_35_164
*1265 FILLER_0_35_169
*1266 FILLER_0_35_203
*1267 FILLER_0_35_207
*1268 FILLER_0_35_241
*1269 FILLER_0_35_249
*1270 FILLER_0_35_258
*1271 FILLER_0_35_265
*1272 FILLER_0_35_291
*1273 FILLER_0_35_3
*1274 FILLER_0_35_303
*1275 FILLER_0_35_314
*1276 FILLER_0_35_324
*1277 FILLER_0_35_332
*1278 FILLER_0_35_34
*1279 FILLER_0_35_46
*1280 FILLER_0_35_54
*1281 FILLER_0_35_57
*1282 FILLER_0_35_69
*1283 FILLER_0_35_81
*1284 FILLER_0_36_109
*1285 FILLER_0_36_138
*1286 FILLER_0_36_15
*1287 FILLER_0_36_174
*1288 FILLER_0_36_206
*1289 FILLER_0_36_251
*1290 FILLER_0_36_253
*1291 FILLER_0_36_257
*1292 FILLER_0_36_27
*1293 FILLER_0_36_29
*1294 FILLER_0_36_296
*1295 FILLER_0_36_3
*1296 FILLER_0_36_316
*1297 FILLER_0_36_324
*1298 FILLER_0_36_332
*1299 FILLER_0_36_41
*1300 FILLER_0_36_53
*1301 FILLER_0_36_65
*1302 FILLER_0_36_82
*1303 FILLER_0_36_85
*1304 FILLER_0_36_97
*1305 FILLER_0_37_108
*1306 FILLER_0_37_129
*1307 FILLER_0_37_137
*1308 FILLER_0_37_15
*1309 FILLER_0_37_169
*1310 FILLER_0_37_177
*1311 FILLER_0_37_198
*1312 FILLER_0_37_206
*1313 FILLER_0_37_225
*1314 FILLER_0_37_243
*1315 FILLER_0_37_251
*1316 FILLER_0_37_260
*1317 FILLER_0_37_27
*1318 FILLER_0_37_289
*1319 FILLER_0_37_293
*1320 FILLER_0_37_3
*1321 FILLER_0_37_326
*1322 FILLER_0_37_334
*1323 FILLER_0_37_39
*1324 FILLER_0_37_51
*1325 FILLER_0_37_55
*1326 FILLER_0_37_57
*1327 FILLER_0_37_63
*1328 FILLER_0_37_96
*1329 FILLER_0_38_10
*1330 FILLER_0_38_102
*1331 FILLER_0_38_106
*1332 FILLER_0_38_110
*1333 FILLER_0_38_113
*1334 FILLER_0_38_127
*1335 FILLER_0_38_139
*1336 FILLER_0_38_14
*1337 FILLER_0_38_141
*1338 FILLER_0_38_167
*1339 FILLER_0_38_169
*1340 FILLER_0_38_174
*1341 FILLER_0_38_18
*1342 FILLER_0_38_186
*1343 FILLER_0_38_194
*1344 FILLER_0_38_197
*1345 FILLER_0_38_209
*1346 FILLER_0_38_22
*1347 FILLER_0_38_221
*1348 FILLER_0_38_235
*1349 FILLER_0_38_247
*1350 FILLER_0_38_251
*1351 FILLER_0_38_271
*1352 FILLER_0_38_279
*1353 FILLER_0_38_281
*1354 FILLER_0_38_287
*1355 FILLER_0_38_294
*1356 FILLER_0_38_303
*1357 FILLER_0_38_309
*1358 FILLER_0_38_32
*1359 FILLER_0_38_320
*1360 FILLER_0_38_332
*1361 FILLER_0_38_38
*1362 FILLER_0_38_42
*1363 FILLER_0_38_46
*1364 FILLER_0_38_50
*1365 FILLER_0_38_54
*1366 FILLER_0_38_57
*1367 FILLER_0_38_6
*1368 FILLER_0_38_62
*1369 FILLER_0_38_83
*1370 FILLER_0_38_88
*1371 FILLER_0_38_94
*1372 FILLER_0_38_98
*1373 FILLER_0_3_105
*1374 FILLER_0_3_111
*1375 FILLER_0_3_113
*1376 FILLER_0_3_125
*1377 FILLER_0_3_137
*1378 FILLER_0_3_149
*1379 FILLER_0_3_15
*1380 FILLER_0_3_161
*1381 FILLER_0_3_167
*1382 FILLER_0_3_169
*1383 FILLER_0_3_181
*1384 FILLER_0_3_193
*1385 FILLER_0_3_205
*1386 FILLER_0_3_217
*1387 FILLER_0_3_223
*1388 FILLER_0_3_225
*1389 FILLER_0_3_237
*1390 FILLER_0_3_249
*1391 FILLER_0_3_261
*1392 FILLER_0_3_27
*1393 FILLER_0_3_273
*1394 FILLER_0_3_279
*1395 FILLER_0_3_281
*1396 FILLER_0_3_293
*1397 FILLER_0_3_3
*1398 FILLER_0_3_305
*1399 FILLER_0_3_317
*1400 FILLER_0_3_329
*1401 FILLER_0_3_39
*1402 FILLER_0_3_51
*1403 FILLER_0_3_55
*1404 FILLER_0_3_57
*1405 FILLER_0_3_69
*1406 FILLER_0_3_81
*1407 FILLER_0_3_93
*1408 FILLER_0_4_109
*1409 FILLER_0_4_121
*1410 FILLER_0_4_133
*1411 FILLER_0_4_139
*1412 FILLER_0_4_141
*1413 FILLER_0_4_15
*1414 FILLER_0_4_153
*1415 FILLER_0_4_165
*1416 FILLER_0_4_177
*1417 FILLER_0_4_189
*1418 FILLER_0_4_195
*1419 FILLER_0_4_197
*1420 FILLER_0_4_209
*1421 FILLER_0_4_221
*1422 FILLER_0_4_233
*1423 FILLER_0_4_245
*1424 FILLER_0_4_251
*1425 FILLER_0_4_253
*1426 FILLER_0_4_265
*1427 FILLER_0_4_27
*1428 FILLER_0_4_277
*1429 FILLER_0_4_289
*1430 FILLER_0_4_29
*1431 FILLER_0_4_3
*1432 FILLER_0_4_301
*1433 FILLER_0_4_307
*1434 FILLER_0_4_309
*1435 FILLER_0_4_321
*1436 FILLER_0_4_333
*1437 FILLER_0_4_41
*1438 FILLER_0_4_53
*1439 FILLER_0_4_65
*1440 FILLER_0_4_77
*1441 FILLER_0_4_83
*1442 FILLER_0_4_85
*1443 FILLER_0_4_97
*1444 FILLER_0_5_105
*1445 FILLER_0_5_111
*1446 FILLER_0_5_113
*1447 FILLER_0_5_125
*1448 FILLER_0_5_137
*1449 FILLER_0_5_149
*1450 FILLER_0_5_15
*1451 FILLER_0_5_161
*1452 FILLER_0_5_167
*1453 FILLER_0_5_169
*1454 FILLER_0_5_181
*1455 FILLER_0_5_193
*1456 FILLER_0_5_205
*1457 FILLER_0_5_217
*1458 FILLER_0_5_223
*1459 FILLER_0_5_225
*1460 FILLER_0_5_237
*1461 FILLER_0_5_249
*1462 FILLER_0_5_261
*1463 FILLER_0_5_27
*1464 FILLER_0_5_273
*1465 FILLER_0_5_279
*1466 FILLER_0_5_281
*1467 FILLER_0_5_293