*SPEF "ieee 1481-1999"
*DESIGN "tt_um_kwilke_cdc_fifo"
*DATE "01:50:35 Wednesday April 10, 2024"
*VENDOR "The OpenROAD Project"
*PROGRAM "OpenROAD"
*VERSION "0889970d1790a2617e69f253221b8bd7626e51dc"
*DESIGN_FLOW "NAME_SCOPE LOCAL" "PIN_CAP NONE"
*DIVIDER /
*DELIMITER :
*BUS_DELIMITER []
*T_UNIT 1 NS
*C_UNIT 1 PF
*R_UNIT 1 OHM
*L_UNIT 1 HENRY

*NAME_MAP
*3 clk
*4 ena
*5 rst_n
*6 ui_in[0]
*7 ui_in[1]
*8 ui_in[2]
*9 ui_in[3]
*10 ui_in[4]
*11 ui_in[5]
*12 ui_in[6]
*13 ui_in[7]
*14 uio_in[0]
*15 uio_in[1]
*16 uio_in[2]
*17 uio_in[3]
*18 uio_in[4]
*19 uio_in[5]
*20 uio_in[6]
*21 uio_in[7]
*22 net9
*23 net10
*24 net11
*25 net12
*26 net13
*27 net14
*28 net15
*29 net16
*30 net17
*31 net18
*32 net19
*33 net20
*34 net21
*35 net22
*36 net23
*37 net24
*38 uo_out[0]
*39 uo_out[1]
*40 net25
*41 net26
*42 uo_out[4]
*43 uo_out[5]
*44 uo_out[6]
*45 uo_out[7]
*46 _000_
*47 _001_
*48 _002_
*49 _003_
*50 _004_
*51 _005_
*52 _006_
*53 _007_
*54 _008_
*55 _009_
*56 _010_
*57 _011_
*58 _012_
*59 _013_
*60 _014_
*61 _015_
*62 _016_
*63 _017_
*64 _018_
*65 _019_
*66 _020_
*67 _021_
*68 _022_
*69 _023_
*70 _024_
*71 _025_
*72 _026_
*73 _027_
*74 _028_
*75 _029_
*76 _030_
*77 _031_
*78 _032_
*79 _033_
*80 _034_
*81 _035_
*82 _036_
*83 _037_
*84 _038_
*85 _039_
*86 _040_
*87 _041_
*88 _042_
*89 _043_
*90 _044_
*91 _045_
*92 _046_
*93 _047_
*94 _048_
*95 _049_
*96 _050_
*97 _051_
*98 _052_
*99 _053_
*100 _054_
*101 _055_
*102 _056_
*103 _057_
*104 _058_
*105 _059_
*106 _060_
*107 _061_
*108 _062_
*109 _063_
*110 _064_
*111 _065_
*112 _066_
*113 _067_
*114 _068_
*115 _069_
*116 _070_
*117 _071_
*118 _072_
*119 _073_
*120 _074_
*121 _075_
*122 _076_
*123 _077_
*124 _078_
*125 _079_
*126 _080_
*127 _081_
*128 _082_
*129 _083_
*130 _084_
*131 _085_
*132 _086_
*133 _087_
*134 _088_
*135 _089_
*136 _090_
*137 _091_
*138 _092_
*139 _093_
*140 _094_
*141 _095_
*142 _096_
*143 _097_
*144 _098_
*145 _099_
*146 _100_
*147 _101_
*148 _102_
*149 _103_
*150 _104_
*151 _105_
*152 _106_
*153 _107_
*154 _108_
*155 _109_
*156 _110_
*157 _111_
*158 _112_
*159 _113_
*160 _114_
*161 _115_
*162 _116_
*163 _117_
*164 _118_
*165 _119_
*166 _120_
*167 _121_
*168 _122_
*169 _123_
*170 _124_
*171 _125_
*172 _126_
*173 _127_
*174 _128_
*175 _129_
*176 _130_
*177 _131_
*178 _132_
*179 _133_
*180 _134_
*181 _135_
*182 _136_
*183 _137_
*184 _138_
*185 _139_
*186 _140_
*187 _141_
*188 _142_
*189 _143_
*190 _144_
*191 _145_
*192 _146_
*193 _147_
*194 _148_
*195 _149_
*196 _150_
*197 _151_
*198 _152_
*199 _153_
*200 _154_
*201 _155_
*202 _156_
*203 _157_
*204 _158_
*205 _159_
*206 _160_
*207 _161_
*208 _162_
*209 _163_
*210 _164_
*211 _165_
*212 _166_
*213 _167_
*214 _168_
*215 _169_
*216 _170_
*217 _171_
*218 _172_
*219 _173_
*220 _174_
*221 _175_
*222 _176_
*223 _177_
*224 _178_
*225 _179_
*226 _180_
*227 _181_
*228 _182_
*229 _183_
*230 _184_
*231 _185_
*232 _186_
*233 _187_
*234 _188_
*235 _189_
*236 _190_
*237 _191_
*238 _192_
*239 _193_
*240 _194_
*241 _195_
*242 _196_
*243 _197_
*244 _198_
*245 _199_
*246 _200_
*247 _201_
*248 _202_
*249 _203_
*250 _204_
*251 _205_
*252 _206_
*253 _207_
*254 _208_
*255 _209_
*256 _210_
*257 _211_
*258 _212_
*259 _213_
*260 _214_
*261 _215_
*262 _216_
*263 _217_
*264 _218_
*265 _219_
*266 _220_
*267 _221_
*268 _222_
*269 _223_
*270 _224_
*271 _225_
*272 _226_
*273 _227_
*274 _228_
*275 _229_
*276 _230_
*277 _231_
*278 _232_
*279 _233_
*280 _234_
*281 _235_
*282 _236_
*283 _237_
*284 _238_
*285 _239_
*286 _240_
*287 _241_
*288 _242_
*289 _243_
*290 _244_
*291 _245_
*292 _246_
*293 _247_
*294 _248_
*295 _249_
*296 _250_
*297 _251_
*298 _252_
*299 _253_
*300 _254_
*301 _255_
*302 _256_
*303 _257_
*304 _258_
*305 _259_
*306 _260_
*307 _261_
*308 _262_
*309 _263_
*310 _264_
*311 _265_
*312 clknet_0_ui_in[0]
*313 clknet_0_ui_in[2]
*314 clknet_1_0__leaf_ui_in[2]
*315 clknet_1_1__leaf_ui_in[2]
*316 clknet_3_0__leaf_ui_in[0]
*317 clknet_3_1__leaf_ui_in[0]
*318 clknet_3_2__leaf_ui_in[0]
*319 clknet_3_3__leaf_ui_in[0]
*320 clknet_3_4__leaf_ui_in[0]
*321 clknet_3_5__leaf_ui_in[0]
*322 clknet_3_6__leaf_ui_in[0]
*323 clknet_3_7__leaf_ui_in[0]
*324 kwilke_fifo\.empty
*325 kwilke_fifo\.full
*326 kwilke_fifo\.memory\.memory\[0\]\[0\]
*327 kwilke_fifo\.memory\.memory\[0\]\[1\]
*328 kwilke_fifo\.memory\.memory\[0\]\[2\]
*329 kwilke_fifo\.memory\.memory\[0\]\[3\]
*330 kwilke_fifo\.memory\.memory\[10\]\[0\]
*331 kwilke_fifo\.memory\.memory\[10\]\[1\]
*332 kwilke_fifo\.memory\.memory\[10\]\[2\]
*333 kwilke_fifo\.memory\.memory\[10\]\[3\]
*334 kwilke_fifo\.memory\.memory\[11\]\[0\]
*335 kwilke_fifo\.memory\.memory\[11\]\[1\]
*336 kwilke_fifo\.memory\.memory\[11\]\[2\]
*337 kwilke_fifo\.memory\.memory\[11\]\[3\]
*338 kwilke_fifo\.memory\.memory\[12\]\[0\]
*339 kwilke_fifo\.memory\.memory\[12\]\[1\]
*340 kwilke_fifo\.memory\.memory\[12\]\[2\]
*341 kwilke_fifo\.memory\.memory\[12\]\[3\]
*342 kwilke_fifo\.memory\.memory\[13\]\[0\]
*343 kwilke_fifo\.memory\.memory\[13\]\[1\]
*344 kwilke_fifo\.memory\.memory\[13\]\[2\]
*345 kwilke_fifo\.memory\.memory\[13\]\[3\]
*346 kwilke_fifo\.memory\.memory\[14\]\[0\]
*347 kwilke_fifo\.memory\.memory\[14\]\[1\]
*348 kwilke_fifo\.memory\.memory\[14\]\[2\]
*349 kwilke_fifo\.memory\.memory\[14\]\[3\]
*350 kwilke_fifo\.memory\.memory\[15\]\[0\]
*351 kwilke_fifo\.memory\.memory\[15\]\[1\]
*352 kwilke_fifo\.memory\.memory\[15\]\[2\]
*353 kwilke_fifo\.memory\.memory\[15\]\[3\]
*354 kwilke_fifo\.memory\.memory\[1\]\[0\]
*355 kwilke_fifo\.memory\.memory\[1\]\[1\]
*356 kwilke_fifo\.memory\.memory\[1\]\[2\]
*357 kwilke_fifo\.memory\.memory\[1\]\[3\]
*358 kwilke_fifo\.memory\.memory\[2\]\[0\]
*359 kwilke_fifo\.memory\.memory\[2\]\[1\]
*360 kwilke_fifo\.memory\.memory\[2\]\[2\]
*361 kwilke_fifo\.memory\.memory\[2\]\[3\]
*362 kwilke_fifo\.memory\.memory\[3\]\[0\]
*363 kwilke_fifo\.memory\.memory\[3\]\[1\]
*364 kwilke_fifo\.memory\.memory\[3\]\[2\]
*365 kwilke_fifo\.memory\.memory\[3\]\[3\]
*366 kwilke_fifo\.memory\.memory\[4\]\[0\]
*367 kwilke_fifo\.memory\.memory\[4\]\[1\]
*368 kwilke_fifo\.memory\.memory\[4\]\[2\]
*369 kwilke_fifo\.memory\.memory\[4\]\[3\]
*370 kwilke_fifo\.memory\.memory\[5\]\[0\]
*371 kwilke_fifo\.memory\.memory\[5\]\[1\]
*372 kwilke_fifo\.memory\.memory\[5\]\[2\]
*373 kwilke_fifo\.memory\.memory\[5\]\[3\]
*374 kwilke_fifo\.memory\.memory\[6\]\[0\]
*375 kwilke_fifo\.memory\.memory\[6\]\[1\]
*376 kwilke_fifo\.memory\.memory\[6\]\[2\]
*377 kwilke_fifo\.memory\.memory\[6\]\[3\]
*378 kwilke_fifo\.memory\.memory\[7\]\[0\]
*379 kwilke_fifo\.memory\.memory\[7\]\[1\]
*380 kwilke_fifo\.memory\.memory\[7\]\[2\]
*381 kwilke_fifo\.memory\.memory\[7\]\[3\]
*382 kwilke_fifo\.memory\.memory\[8\]\[0\]
*383 kwilke_fifo\.memory\.memory\[8\]\[1\]
*384 kwilke_fifo\.memory\.memory\[8\]\[2\]
*385 kwilke_fifo\.memory\.memory\[8\]\[3\]
*386 kwilke_fifo\.memory\.memory\[9\]\[0\]
*387 kwilke_fifo\.memory\.memory\[9\]\[1\]
*388 kwilke_fifo\.memory\.memory\[9\]\[2\]
*389 kwilke_fifo\.memory\.memory\[9\]\[3\]
*390 kwilke_fifo\.memory\.read_address\[0\]
*391 kwilke_fifo\.memory\.read_address\[1\]
*392 kwilke_fifo\.memory\.read_address\[2\]
*393 kwilke_fifo\.memory\.read_address\[3\]
*394 kwilke_fifo\.memory\.write_address\[0\]
*395 kwilke_fifo\.memory\.write_address\[1\]
*396 kwilke_fifo\.memory\.write_address\[2\]
*397 kwilke_fifo\.memory\.write_address\[3\]
*398 kwilke_fifo\.read_address_gray_postsync\[0\]
*399 kwilke_fifo\.read_address_gray_postsync\[1\]
*400 kwilke_fifo\.read_address_gray_postsync\[2\]
*401 kwilke_fifo\.read_address_gray_postsync\[3\]
*402 kwilke_fifo\.read_address_gray_presync\[0\]
*403 kwilke_fifo\.read_address_gray_presync\[1\]
*404 kwilke_fifo\.read_address_gray_presync\[2\]
*405 kwilke_fifo\.read_address_sync\.data\[0\]
*406 kwilke_fifo\.read_address_sync\.data\[1\]
*407 kwilke_fifo\.read_address_sync\.data\[2\]
*408 kwilke_fifo\.read_address_sync\.data\[3\]
*409 kwilke_fifo\.readstate\.write_addr_decode\.binary\[3\]
*410 kwilke_fifo\.readstate\.write_addr_decode\.gray\[0\]
*411 kwilke_fifo\.readstate\.write_addr_decode\.gray\[1\]
*412 kwilke_fifo\.readstate\.write_addr_decode\.gray\[2\]
*413 kwilke_fifo\.write_address_gray_presync\[0\]
*414 kwilke_fifo\.write_address_gray_presync\[1\]
*415 kwilke_fifo\.write_address_gray_presync\[2\]
*416 kwilke_fifo\.write_address_sync\.data\[0\]
*417 kwilke_fifo\.write_address_sync\.data\[1\]
*418 kwilke_fifo\.write_address_sync\.data\[2\]
*419 kwilke_fifo\.write_address_sync\.data\[3\]
*420 net1
*421 net100
*422 net101
*423 net2
*424 net27
*425 net28
*426 net29
*427 net3
*428 net30
*429 net31
*430 net32
*431 net33
*432 net34
*433 net35
*434 net36
*435 net37
*436 net38
*437 net39
*438 net4
*439 net40
*440 net41
*441 net42
*442 net43
*443 net44
*444 net45
*445 net46
*446 net47
*447 net48
*448 net49
*449 net5
*450 net50
*451 net51
*452 net52
*453 net53
*454 net54
*455 net55
*456 net56
*457 net57
*458 net58
*459 net59
*460 net6
*461 net60
*462 net61
*463 net62
*464 net63
*465 net64
*466 net65
*467 net66
*468 net67
*469 net68
*470 net69
*471 net7
*472 net70
*473 net71
*474 net72
*475 net73
*476 net74
*477 net75
*478 net76
*479 net77
*480 net78
*481 net79
*482 net8
*483 net80
*484 net81
*485 net82
*486 net83
*487 net84
*488 net85
*489 net86
*490 net87
*491 net88
*492 net89
*493 net90
*494 net91
*495 net92
*496 net93
*497 net94
*498 net95
*499 net96
*500 net97
*501 net98
*502 net99
*503 FILLER_0_0_109
*504 FILLER_0_0_113
*505 FILLER_0_0_125
*506 FILLER_0_0_137
*507 FILLER_0_0_141
*508 FILLER_0_0_15
*509 FILLER_0_0_153
*510 FILLER_0_0_165
*511 FILLER_0_0_169
*512 FILLER_0_0_181
*513 FILLER_0_0_193
*514 FILLER_0_0_197
*515 FILLER_0_0_209
*516 FILLER_0_0_221
*517 FILLER_0_0_225
*518 FILLER_0_0_237
*519 FILLER_0_0_249
*520 FILLER_0_0_253
*521 FILLER_0_0_265
*522 FILLER_0_0_27
*523 FILLER_0_0_277
*524 FILLER_0_0_281
*525 FILLER_0_0_29
*526 FILLER_0_0_293
*527 FILLER_0_0_3
*528 FILLER_0_0_305
*529 FILLER_0_0_309
*530 FILLER_0_0_321
*531 FILLER_0_0_333
*532 FILLER_0_0_41
*533 FILLER_0_0_53
*534 FILLER_0_0_57
*535 FILLER_0_0_69
*536 FILLER_0_0_81
*537 FILLER_0_0_85
*538 FILLER_0_0_97
*539 FILLER_0_10_109
*540 FILLER_0_10_121
*541 FILLER_0_10_133
*542 FILLER_0_10_139
*543 FILLER_0_10_141
*544 FILLER_0_10_15
*545 FILLER_0_10_153
*546 FILLER_0_10_165
*547 FILLER_0_10_177
*548 FILLER_0_10_189
*549 FILLER_0_10_195
*550 FILLER_0_10_197
*551 FILLER_0_10_209
*552 FILLER_0_10_221
*553 FILLER_0_10_233
*554 FILLER_0_10_245
*555 FILLER_0_10_251
*556 FILLER_0_10_253
*557 FILLER_0_10_265
*558 FILLER_0_10_27
*559 FILLER_0_10_277
*560 FILLER_0_10_289
*561 FILLER_0_10_29
*562 FILLER_0_10_3
*563 FILLER_0_10_301
*564 FILLER_0_10_307
*565 FILLER_0_10_309
*566 FILLER_0_10_321
*567 FILLER_0_10_333
*568 FILLER_0_10_41
*569 FILLER_0_10_53
*570 FILLER_0_10_65
*571 FILLER_0_10_77
*572 FILLER_0_10_83
*573 FILLER_0_10_85
*574 FILLER_0_10_97
*575 FILLER_0_11_105
*576 FILLER_0_11_111
*577 FILLER_0_11_113
*578 FILLER_0_11_125
*579 FILLER_0_11_137
*580 FILLER_0_11_149
*581 FILLER_0_11_15
*582 FILLER_0_11_161
*583 FILLER_0_11_167
*584 FILLER_0_11_169
*585 FILLER_0_11_181
*586 FILLER_0_11_193
*587 FILLER_0_11_205
*588 FILLER_0_11_217
*589 FILLER_0_11_223
*590 FILLER_0_11_225
*591 FILLER_0_11_237
*592 FILLER_0_11_249
*593 FILLER_0_11_261
*594 FILLER_0_11_27
*595 FILLER_0_11_273
*596 FILLER_0_11_279
*597 FILLER_0_11_281
*598 FILLER_0_11_293
*599 FILLER_0_11_3
*600 FILLER_0_11_305
*601 FILLER_0_11_317
*602 FILLER_0_11_329
*603 FILLER_0_11_39
*604 FILLER_0_11_51
*605 FILLER_0_11_55
*606 FILLER_0_11_57
*607 FILLER_0_11_69
*608 FILLER_0_11_81
*609 FILLER_0_11_93
*610 FILLER_0_12_109
*611 FILLER_0_12_121
*612 FILLER_0_12_133
*613 FILLER_0_12_139
*614 FILLER_0_12_141
*615 FILLER_0_12_15
*616 FILLER_0_12_153
*617 FILLER_0_12_165
*618 FILLER_0_12_177
*619 FILLER_0_12_189
*620 FILLER_0_12_195
*621 FILLER_0_12_197
*622 FILLER_0_12_209
*623 FILLER_0_12_221
*624 FILLER_0_12_233
*625 FILLER_0_12_245
*626 FILLER_0_12_251
*627 FILLER_0_12_253
*628 FILLER_0_12_265
*629 FILLER_0_12_27
*630 FILLER_0_12_277
*631 FILLER_0_12_289
*632 FILLER_0_12_29
*633 FILLER_0_12_3
*634 FILLER_0_12_301
*635 FILLER_0_12_307
*636 FILLER_0_12_309
*637 FILLER_0_12_321
*638 FILLER_0_12_333
*639 FILLER_0_12_41
*640 FILLER_0_12_53
*641 FILLER_0_12_65
*642 FILLER_0_12_77
*643 FILLER_0_12_83
*644 FILLER_0_12_85
*645 FILLER_0_12_97
*646 FILLER_0_13_105
*647 FILLER_0_13_111
*648 FILLER_0_13_113
*649 FILLER_0_13_125
*650 FILLER_0_13_137
*651 FILLER_0_13_149
*652 FILLER_0_13_15
*653 FILLER_0_13_161
*654 FILLER_0_13_167
*655 FILLER_0_13_169
*656 FILLER_0_13_181
*657 FILLER_0_13_193
*658 FILLER_0_13_205
*659 FILLER_0_13_217
*660 FILLER_0_13_223
*661 FILLER_0_13_225
*662 FILLER_0_13_237
*663 FILLER_0_13_249
*664 FILLER_0_13_261
*665 FILLER_0_13_27
*666 FILLER_0_13_273
*667 FILLER_0_13_279
*668 FILLER_0_13_281
*669 FILLER_0_13_293
*670 FILLER_0_13_3
*671 FILLER_0_13_305
*672 FILLER_0_13_317
*673 FILLER_0_13_329
*674 FILLER_0_13_39
*675 FILLER_0_13_51
*676 FILLER_0_13_55
*677 FILLER_0_13_57
*678 FILLER_0_13_69
*679 FILLER_0_13_81
*680 FILLER_0_13_93
*681 FILLER_0_14_109
*682 FILLER_0_14_121
*683 FILLER_0_14_133
*684 FILLER_0_14_139
*685 FILLER_0_14_141
*686 FILLER_0_14_15
*687 FILLER_0_14_153
*688 FILLER_0_14_165
*689 FILLER_0_14_177
*690 FILLER_0_14_189
*691 FILLER_0_14_195
*692 FILLER_0_14_197
*693 FILLER_0_14_209
*694 FILLER_0_14_221
*695 FILLER_0_14_233
*696 FILLER_0_14_245
*697 FILLER_0_14_251
*698 FILLER_0_14_253
*699 FILLER_0_14_265
*700 FILLER_0_14_27
*701 FILLER_0_14_277
*702 FILLER_0_14_289
*703 FILLER_0_14_29
*704 FILLER_0_14_3
*705 FILLER_0_14_301
*706 FILLER_0_14_307
*707 FILLER_0_14_309
*708 FILLER_0_14_321
*709 FILLER_0_14_333
*710 FILLER_0_14_41
*711 FILLER_0_14_53
*712 FILLER_0_14_65
*713 FILLER_0_14_77
*714 FILLER_0_14_83
*715 FILLER_0_14_85
*716 FILLER_0_14_97
*717 FILLER_0_15_105
*718 FILLER_0_15_111
*719 FILLER_0_15_113
*720 FILLER_0_15_125
*721 FILLER_0_15_137
*722 FILLER_0_15_149
*723 FILLER_0_15_15
*724 FILLER_0_15_161
*725 FILLER_0_15_167
*726 FILLER_0_15_169
*727 FILLER_0_15_181
*728 FILLER_0_15_193
*729 FILLER_0_15_205
*730 FILLER_0_15_217
*731 FILLER_0_15_223
*732 FILLER_0_15_225
*733 FILLER_0_15_237
*734 FILLER_0_15_249
*735 FILLER_0_15_261
*736 FILLER_0_15_27
*737 FILLER_0_15_273
*738 FILLER_0_15_279
*739 FILLER_0_15_281
*740 FILLER_0_15_293
*741 FILLER_0_15_3
*742 FILLER_0_15_305
*743 FILLER_0_15_317
*744 FILLER_0_15_329
*745 FILLER_0_15_39
*746 FILLER_0_15_51
*747 FILLER_0_15_55
*748 FILLER_0_15_57
*749 FILLER_0_15_69
*750 FILLER_0_15_81
*751 FILLER_0_15_93
*752 FILLER_0_16_109
*753 FILLER_0_16_121
*754 FILLER_0_16_133
*755 FILLER_0_16_139
*756 FILLER_0_16_141
*757 FILLER_0_16_15
*758 FILLER_0_16_153
*759 FILLER_0_16_165
*760 FILLER_0_16_177
*761 FILLER_0_16_189
*762 FILLER_0_16_195
*763 FILLER_0_16_197
*764 FILLER_0_16_209
*765 FILLER_0_16_221
*766 FILLER_0_16_233
*767 FILLER_0_16_245
*768 FILLER_0_16_251
*769 FILLER_0_16_253
*770 FILLER_0_16_265
*771 FILLER_0_16_27
*772 FILLER_0_16_277
*773 FILLER_0_16_289
*774 FILLER_0_16_29
*775 FILLER_0_16_3
*776 FILLER_0_16_301
*777 FILLER_0_16_307
*778 FILLER_0_16_309
*779 FILLER_0_16_321
*780 FILLER_0_16_333
*781 FILLER_0_16_41
*782 FILLER_0_16_53
*783 FILLER_0_16_65
*784 FILLER_0_16_77
*785 FILLER_0_16_83
*786 FILLER_0_16_85
*787 FILLER_0_16_97
*788 FILLER_0_17_105
*789 FILLER_0_17_111
*790 FILLER_0_17_113
*791 FILLER_0_17_125
*792 FILLER_0_17_137
*793 FILLER_0_17_149
*794 FILLER_0_17_15
*795 FILLER_0_17_161
*796 FILLER_0_17_167
*797 FILLER_0_17_169
*798 FILLER_0_17_181
*799 FILLER_0_17_193
*800 FILLER_0_17_205
*801 FILLER_0_17_217
*802 FILLER_0_17_223
*803 FILLER_0_17_225
*804 FILLER_0_17_237
*805 FILLER_0_17_249
*806 FILLER_0_17_261
*807 FILLER_0_17_27
*808 FILLER_0_17_273
*809 FILLER_0_17_279
*810 FILLER_0_17_281
*811 FILLER_0_17_293
*812 FILLER_0_17_3
*813 FILLER_0_17_305
*814 FILLER_0_17_317
*815 FILLER_0_17_329
*816 FILLER_0_17_39
*817 FILLER_0_17_51
*818 FILLER_0_17_55
*819 FILLER_0_17_57
*820 FILLER_0_17_69
*821 FILLER_0_17_81
*822 FILLER_0_17_93
*823 FILLER_0_18_105
*824 FILLER_0_18_117
*825 FILLER_0_18_129
*826 FILLER_0_18_137
*827 FILLER_0_18_141
*828 FILLER_0_18_15
*829 FILLER_0_18_153
*830 FILLER_0_18_165
*831 FILLER_0_18_177
*832 FILLER_0_18_189
*833 FILLER_0_18_195
*834 FILLER_0_18_197
*835 FILLER_0_18_209
*836 FILLER_0_18_221
*837 FILLER_0_18_233
*838 FILLER_0_18_245
*839 FILLER_0_18_251
*840 FILLER_0_18_253
*841 FILLER_0_18_265
*842 FILLER_0_18_27
*843 FILLER_0_18_277
*844 FILLER_0_18_289
*845 FILLER_0_18_29
*846 FILLER_0_18_3
*847 FILLER_0_18_301
*848 FILLER_0_18_307
*849 FILLER_0_18_309
*850 FILLER_0_18_321
*851 FILLER_0_18_333
*852 FILLER_0_18_41
*853 FILLER_0_18_53
*854 FILLER_0_18_65
*855 FILLER_0_18_77
*856 FILLER_0_18_83
*857 FILLER_0_18_85
*858 FILLER_0_19_106
*859 FILLER_0_19_113
*860 FILLER_0_19_125
*861 FILLER_0_19_131
*862 FILLER_0_19_148
*863 FILLER_0_19_15
*864 FILLER_0_19_160
*865 FILLER_0_19_169
*866 FILLER_0_19_177
*867 FILLER_0_19_187
*868 FILLER_0_19_199
*869 FILLER_0_19_211
*870 FILLER_0_19_223
*871 FILLER_0_19_225
*872 FILLER_0_19_237
*873 FILLER_0_19_249
*874 FILLER_0_19_261
*875 FILLER_0_19_27
*876 FILLER_0_19_273
*877 FILLER_0_19_279
*878 FILLER_0_19_281
*879 FILLER_0_19_293
*880 FILLER_0_19_3
*881 FILLER_0_19_305
*882 FILLER_0_19_317
*883 FILLER_0_19_329
*884 FILLER_0_19_39
*885 FILLER_0_19_48
*886 FILLER_0_19_52
*887 FILLER_0_19_65
*888 FILLER_0_19_77
*889 FILLER_0_19_89
*890 FILLER_0_1_105
*891 FILLER_0_1_111
*892 FILLER_0_1_113
*893 FILLER_0_1_125
*894 FILLER_0_1_137
*895 FILLER_0_1_149
*896 FILLER_0_1_15
*897 FILLER_0_1_161
*898 FILLER_0_1_167
*899 FILLER_0_1_169
*900 FILLER_0_1_181
*901 FILLER_0_1_193
*902 FILLER_0_1_205
*903 FILLER_0_1_217
*904 FILLER_0_1_223
*905 FILLER_0_1_225
*906 FILLER_0_1_237
*907 FILLER_0_1_249
*908 FILLER_0_1_261
*909 FILLER_0_1_27
*910 FILLER_0_1_273
*911 FILLER_0_1_279
*912 FILLER_0_1_281
*913 FILLER_0_1_293
*914 FILLER_0_1_3
*915 FILLER_0_1_305
*916 FILLER_0_1_317
*917 FILLER_0_1_329
*918 FILLER_0_1_39
*919 FILLER_0_1_51
*920 FILLER_0_1_55
*921 FILLER_0_1_57
*922 FILLER_0_1_69
*923 FILLER_0_1_81
*924 FILLER_0_1_93
*925 FILLER_0_20_101
*926 FILLER_0_20_11
*927 FILLER_0_20_126
*928 FILLER_0_20_141
*929 FILLER_0_20_175
*930 FILLER_0_20_214
*931 FILLER_0_20_226
*932 FILLER_0_20_238
*933 FILLER_0_20_250
*934 FILLER_0_20_253
*935 FILLER_0_20_265
*936 FILLER_0_20_277
*937 FILLER_0_20_289
*938 FILLER_0_20_3
*939 FILLER_0_20_301
*940 FILLER_0_20_307
*941 FILLER_0_20_309
*942 FILLER_0_20_321
*943 FILLER_0_20_333
*944 FILLER_0_20_46
*945 FILLER_0_20_74
*946 FILLER_0_20_80
*947 FILLER_0_21_110
*948 FILLER_0_21_122
*949 FILLER_0_21_15
*950 FILLER_0_21_169
*951 FILLER_0_21_216
*952 FILLER_0_21_225
*953 FILLER_0_21_237
*954 FILLER_0_21_249
*955 FILLER_0_21_257
*956 FILLER_0_21_281
*957 FILLER_0_21_293
*958 FILLER_0_21_3
*959 FILLER_0_21_305
*960 FILLER_0_21_317
*961 FILLER_0_21_329
*962 FILLER_0_21_34
*963 FILLER_0_21_73
*964 FILLER_0_22_118
*965 FILLER_0_22_127
*966 FILLER_0_22_135
*967 FILLER_0_22_141
*968 FILLER_0_22_145
*969 FILLER_0_22_15
*970 FILLER_0_22_167
*971 FILLER_0_22_19
*972 FILLER_0_22_197
*973 FILLER_0_22_209
*974 FILLER_0_22_217
*975 FILLER_0_22_229
*976 FILLER_0_22_241
*977 FILLER_0_22_245
*978 FILLER_0_22_249
*979 FILLER_0_22_26
*980 FILLER_0_22_279
*981 FILLER_0_22_291
*982 FILLER_0_22_3
*983 FILLER_0_22_303
*984 FILLER_0_22_307
*985 FILLER_0_22_309
*986 FILLER_0_22_321
*987 FILLER_0_22_333
*988 FILLER_0_22_38
*989 FILLER_0_22_44
*990 FILLER_0_22_66
*991 FILLER_0_22_78
*992 FILLER_0_23_109
*993 FILLER_0_23_113
*994 FILLER_0_23_15
*995 FILLER_0_23_153
*996 FILLER_0_23_165
*997 FILLER_0_23_169
*998 FILLER_0_23_181
*999 FILLER_0_23_220
*1000 FILLER_0_23_225
*1001 FILLER_0_23_231
*1002 FILLER_0_23_262
*1003 FILLER_0_23_27
*1004 FILLER_0_23_281
*1005 FILLER_0_23_3
*1006 FILLER_0_23_306
*1007 FILLER_0_23_318
*1008 FILLER_0_23_330
*1009 FILLER_0_23_334
*1010 FILLER_0_23_39
*1011 FILLER_0_23_73
*1012 FILLER_0_23_84
*1013 FILLER_0_23_88
*1014 FILLER_0_24_111
*1015 FILLER_0_24_15
*1016 FILLER_0_24_161
*1017 FILLER_0_24_173
*1018 FILLER_0_24_185
*1019 FILLER_0_24_193
*1020 FILLER_0_24_197
*1021 FILLER_0_24_21
*1022 FILLER_0_24_210
*1023 FILLER_0_24_247
*1024 FILLER_0_24_251
*1025 FILLER_0_24_253
*1026 FILLER_0_24_259
*1027 FILLER_0_24_27
*1028 FILLER_0_24_272
*1029 FILLER_0_24_292
*1030 FILLER_0_24_3
*1031 FILLER_0_24_304
*1032 FILLER_0_24_309
*1033 FILLER_0_24_331
*1034 FILLER_0_24_46
*1035 FILLER_0_24_83
*1036 FILLER_0_24_85
*1037 FILLER_0_25_102
*1038 FILLER_0_25_129
*1039 FILLER_0_25_150
*1040 FILLER_0_25_185
*1041 FILLER_0_25_197
*1042 FILLER_0_25_201
*1043 FILLER_0_25_211
*1044 FILLER_0_25_220
*1045 FILLER_0_25_241
*1046 FILLER_0_25_253
*1047 FILLER_0_25_259
*1048 FILLER_0_25_298
*1049 FILLER_0_25_3
*1050 FILLER_0_25_322
*1051 FILLER_0_25_334
*1052 FILLER_0_25_45
*1053 FILLER_0_25_49
*1054 FILLER_0_25_75
*1055 FILLER_0_25_9
*1056 FILLER_0_25_98
*1057 FILLER_0_26_11
*1058 FILLER_0_26_113
*1059 FILLER_0_26_150
*1060 FILLER_0_26_156
*1061 FILLER_0_26_166
*1062 FILLER_0_26_190
*1063 FILLER_0_26_197
*1064 FILLER_0_26_216
*1065 FILLER_0_26_251
*1066 FILLER_0_26_253
*1067 FILLER_0_26_261
*1068 FILLER_0_26_282
*1069 FILLER_0_26_294
*1070 FILLER_0_26_3
*1071 FILLER_0_26_306
*1072 FILLER_0_26_309
*1073 FILLER_0_26_324
*1074 FILLER_0_26_332
*1075 FILLER_0_26_38
*1076 FILLER_0_26_47
*1077 FILLER_0_26_83
*1078 FILLER_0_26_85
*1079 FILLER_0_26_93
*1080 FILLER_0_27_11
*1081 FILLER_0_27_113
*1082 FILLER_0_27_140
*1083 FILLER_0_27_151
*1084 FILLER_0_27_157
*1085 FILLER_0_27_167
*1086 FILLER_0_27_177
*1087 FILLER_0_27_189
*1088 FILLER_0_27_195
*1089 FILLER_0_27_207
*1090 FILLER_0_27_222
*1091 FILLER_0_27_252
*1092 FILLER_0_27_277
*1093 FILLER_0_27_293
*1094 FILLER_0_27_3
*1095 FILLER_0_27_305
*1096 FILLER_0_27_333
*1097 FILLER_0_27_81
*1098 FILLER_0_27_88
*1099 FILLER_0_28_117
*1100 FILLER_0_28_149
*1101 FILLER_0_28_15
*1102 FILLER_0_28_153
*1103 FILLER_0_28_181
*1104 FILLER_0_28_193
*1105 FILLER_0_28_197
*1106 FILLER_0_28_216
*1107 FILLER_0_28_23
*1108 FILLER_0_28_235
*1109 FILLER_0_28_240
*1110 FILLER_0_28_253
*1111 FILLER_0_28_282
*1112 FILLER_0_28_294
*1113 FILLER_0_28_3
*1114 FILLER_0_28_306
*1115 FILLER_0_28_329
*1116 FILLER_0_28_38
*1117 FILLER_0_28_47
*1118 FILLER_0_28_82
*1119 FILLER_0_28_85
*1120 FILLER_0_29_104
*1121 FILLER_0_29_11
*1122 FILLER_0_29_141
*1123 FILLER_0_29_150
*1124 FILLER_0_29_16
*1125 FILLER_0_29_169
*1126 FILLER_0_29_190
*1127 FILLER_0_29_202
*1128 FILLER_0_29_223
*1129 FILLER_0_29_243
*1130 FILLER_0_29_251
*1131 FILLER_0_29_281
*1132 FILLER_0_29_289
*1133 FILLER_0_29_3
*1134 FILLER_0_29_324
*1135 FILLER_0_29_38
*1136 FILLER_0_29_66
*1137 FILLER_0_29_70
*1138 FILLER_0_2_109
*1139 FILLER_0_2_121
*1140 FILLER_0_2_133
*1141 FILLER_0_2_139
*1142 FILLER_0_2_141
*1143 FILLER_0_2_15
*1144 FILLER_0_2_153
*1145 FILLER_0_2_165
*1146 FILLER_0_2_177
*1147 FILLER_0_2_189
*1148 FILLER_0_2_195
*1149 FILLER_0_2_197
*1150 FILLER_0_2_209
*1151 FILLER_0_2_221
*1152 FILLER_0_2_233
*1153 FILLER_0_2_245
*1154 FILLER_0_2_251
*1155 FILLER_0_2_253
*1156 FILLER_0_2_265
*1157 FILLER_0_2_27
*1158 FILLER_0_2_277
*1159 FILLER_0_2_289
*1160 FILLER_0_2_29
*1161 FILLER_0_2_3
*1162 FILLER_0_2_301
*1163 FILLER_0_2_307
*1164 FILLER_0_2_309
*1165 FILLER_0_2_321
*1166 FILLER_0_2_333
*1167 FILLER_0_2_41
*1168 FILLER_0_2_53
*1169 FILLER_0_2_65
*1170 FILLER_0_2_77
*1171 FILLER_0_2_83
*1172 FILLER_0_2_85
*1173 FILLER_0_2_97
*1174 FILLER_0_30_107
*1175 FILLER_0_30_157
*1176 FILLER_0_30_191
*1177 FILLER_0_30_195
*1178 FILLER_0_30_197
*1179 FILLER_0_30_209
*1180 FILLER_0_30_23
*1181 FILLER_0_30_239
*1182 FILLER_0_30_251
*1183 FILLER_0_30_253
*1184 FILLER_0_30_257
*1185 FILLER_0_30_280
*1186 FILLER_0_30_3
*1187 FILLER_0_30_309
*1188 FILLER_0_30_326
*1189 FILLER_0_30_334
*1190 FILLER_0_30_62
*1191 FILLER_0_30_99
*1192 FILLER_0_31_104
*1193 FILLER_0_31_108
*1194 FILLER_0_31_113
*1195 FILLER_0_31_143
*1196 FILLER_0_31_15
*1197 FILLER_0_31_169
*1198 FILLER_0_31_208
*1199 FILLER_0_31_214
*1200 FILLER_0_31_228
*1201 FILLER_0_31_240
*1202 FILLER_0_31_246
*1203 FILLER_0_31_250
*1204 FILLER_0_31_259
*1205 FILLER_0_31_263
*1206 FILLER_0_31_297
*1207 FILLER_0_31_3
*1208 FILLER_0_31_327
*1209 FILLER_0_31_35
*1210 FILLER_0_31_53
*1211 FILLER_0_31_81
*1212 FILLER_0_32_100
*1213 FILLER_0_32_106
*1214 FILLER_0_32_15
*1215 FILLER_0_32_165
*1216 FILLER_0_32_213
*1217 FILLER_0_32_225
*1218 FILLER_0_32_231
*1219 FILLER_0_32_27
*1220 FILLER_0_32_276
*1221 FILLER_0_32_282
*1222 FILLER_0_32_29
*1223 FILLER_0_32_3
*1224 FILLER_0_32_307
*1225 FILLER_0_32_329
*1226 FILLER_0_32_50
*1227 FILLER_0_32_61
*1228 FILLER_0_32_82
*1229 FILLER_0_32_85
*1230 FILLER_0_33_108
*1231 FILLER_0_33_11
*1232 FILLER_0_33_121
*1233 FILLER_0_33_129
*1234 FILLER_0_33_152
*1235 FILLER_0_33_158
*1236 FILLER_0_33_16
*1237 FILLER_0_33_166
*1238 FILLER_0_33_176
*1239 FILLER_0_33_184
*1240 FILLER_0_33_223
*1241 FILLER_0_33_236
*1242 FILLER_0_33_240
*1243 FILLER_0_33_247
*1244 FILLER_0_33_272
*1245 FILLER_0_33_276
*1246 FILLER_0_33_287
*1247 FILLER_0_33_3
*1248 FILLER_0_33_313
*1249 FILLER_0_33_325
*1250 FILLER_0_33_333
*1251 FILLER_0_33_39
*1252 FILLER_0_33_66
*1253 FILLER_0_34_124
*1254 FILLER_0_34_148
*1255 FILLER_0_34_154
*1256 FILLER_0_34_186
*1257 FILLER_0_34_192
*1258 FILLER_0_34_213
*1259 FILLER_0_34_226
*1260 FILLER_0_34_248
*1261 FILLER_0_34_25
*1262 FILLER_0_34_253
*1263 FILLER_0_34_283
*1264 FILLER_0_34_29
*1265 FILLER_0_34_3
*1266 FILLER_0_34_318
*1267 FILLER_0_34_322
*1268 FILLER_0_34_333
*1269 FILLER_0_34_65
*1270 FILLER_0_35_110
*1271 FILLER_0_35_113
*1272 FILLER_0_35_125
*1273 FILLER_0_35_147
*1274 FILLER_0_35_15
*1275 FILLER_0_35_159
*1276 FILLER_0_35_185
*1277 FILLER_0_35_193
*1278 FILLER_0_35_222
*1279 FILLER_0_35_236
*1280 FILLER_0_35_279
*1281 FILLER_0_35_3
*1282 FILLER_0_35_333
*1283 FILLER_0_35_52
*1284 FILLER_0_35_57
*1285 FILLER_0_35_67
*1286 FILLER_0_35_79
*1287 FILLER_0_36_108
*1288 FILLER_0_36_120
*1289 FILLER_0_36_15
*1290 FILLER_0_36_187
*1291 FILLER_0_36_197
*1292 FILLER_0_36_207
*1293 FILLER_0_36_241
*1294 FILLER_0_36_262
*1295 FILLER_0_36_27
*1296 FILLER_0_36_29
*1297 FILLER_0_36_3
*1298 FILLER_0_36_307
*1299 FILLER_0_36_309
*1300 FILLER_0_36_323
*1301 FILLER_0_36_329
*1302 FILLER_0_36_41
*1303 FILLER_0_36_60
*1304 FILLER_0_36_68
*1305 FILLER_0_36_82
*1306 FILLER_0_36_96
*1307 FILLER_0_37_102
*1308 FILLER_0_37_110
*1309 FILLER_0_37_147
*1310 FILLER_0_37_15
*1311 FILLER_0_37_159
*1312 FILLER_0_37_199
*1313 FILLER_0_37_252
*1314 FILLER_0_37_27
*1315 FILLER_0_37_281
*1316 FILLER_0_37_285
*1317 FILLER_0_37_3
*1318 FILLER_0_37_310
*1319 FILLER_0_37_331
*1320 FILLER_0_37_35
*1321 FILLER_0_37_53
*1322 FILLER_0_37_57
*1323 FILLER_0_38_10
*1324 FILLER_0_38_113
*1325 FILLER_0_38_136
*1326 FILLER_0_38_14
*1327 FILLER_0_38_157
*1328 FILLER_0_38_166
*1329 FILLER_0_38_18
*1330 FILLER_0_38_181
*1331 FILLER_0_38_192
*1332 FILLER_0_38_197
*1333 FILLER_0_38_203
*1334 FILLER_0_38_22
*1335 FILLER_0_38_241
*1336 FILLER_0_38_249
*1337 FILLER_0_38_256
*1338 FILLER_0_38_263
*1339 FILLER_0_38_271
*1340 FILLER_0_38_279
*1341 FILLER_0_38_294
*1342 FILLER_0_38_305
*1343 FILLER_0_38_309
*1344 FILLER_0_38_32
*1345 FILLER_0_38_321
*1346 FILLER_0_38_333
*1347 FILLER_0_38_38
*1348 FILLER_0_38_47
*1349 FILLER_0_38_54
*1350 FILLER_0_38_57
*1351 FILLER_0_38_6
*1352 FILLER_0_38_62
*1353 FILLER_0_38_66
*1354 FILLER_0_38_70
*1355 FILLER_0_38_74
*1356 FILLER_0_38_93
*1357 FILLER_0_3_105
*1358 FILLER_0_3_111
*1359 FILLER_0_3_113
*1360 FILLER_0_3_125
*1361 FILLER_0_3_137
*1362 FILLER_0_3_149
*1363 FILLER_0_3_15
*1364 FILLER_0_3_161
*1365 FILLER_0_3_167
*1366 FILLER_0_3_169
*1367 FILLER_0_3_181
*1368 FILLER_0_3_193
*1369 FILLER_0_3_205
*1370 FILLER_0_3_217
*1371 FILLER_0_3_223
*1372 FILLER_0_3_225
*1373 FILLER_0_3_237
*1374 FILLER_0_3_249
*1375 FILLER_0_3_261
*1376 FILLER_0_3_27
*1377 FILLER_0_3_273
*1378 FILLER_0_3_279
*1379 FILLER_0_3_281
*1380 FILLER_0_3_293
*1381 FILLER_0_3_3
*1382 FILLER_0_3_305
*1383 FILLER_0_3_317
*1384 FILLER_0_3_329
*1385 FILLER_0_3_39
*1386 FILLER_0_3_51
*1387 FILLER_0_3_55
*1388 FILLER_0_3_57
*1389 FILLER_0_3_69
*1390 FILLER_0_3_81
*1391 FILLER_0_3_93
*1392 FILLER_0_4_109
*1393 FILLER_0_4_121
*1394 FILLER_0_4_133
*1395 FILLER_0_4_139
*1396 FILLER_0_4_141
*1397 FILLER_0_4_15
*1398 FILLER_0_4_153
*1399 FILLER_0_4_165
*1400 FILLER_0_4_177
*1401 FILLER_0_4_189
*1402 FILLER_0_4_195
*1403 FILLER_0_4_197
*1404 FILLER_0_4_209
*1405 FILLER_0_4_221
*1406 FILLER_0_4_233
*1407 FILLER_0_4_245
*1408 FILLER_0_4_251
*1409 FILLER_0_4_253
*1410 FILLER_0_4_265
*1411 FILLER_0_4_27
*1412 FILLER_0_4_277
*1413 FILLER_0_4_289
*1414 FILLER_0_4_29
*1415 FILLER_0_4_3
*1416 FILLER_0_4_301
*1417 FILLER_0_4_307
*1418 FILLER_0_4_309
*1419 FILLER_0_4_321
*1420 FILLER_0_4_333
*1421 FILLER_0_4_41
*1422 FILLER_0_4_53
*1423 FILLER_0_4_65
*1424 FILLER_0_4_77
*1425 FILLER_0_4_83
*1426 FILLER_0_4_85
*1427 FILLER_0_4_97
*1428 FILLER_0_5_105
*1429 FILLER_0_5_111
*1430 FILLER_0_5_113
*1431 FILLER_0_5_125
*1432 FILLER_0_5_137
*1433 FILLER_0_5_149
*1434 FILLER_0_5_15
*1435 FILLER_0_5_161
*1436 FILLER_0_5_167
*1437 FILLER_0_5_169
*1438 FILLER_0_5_181
*1439 FILLER_0_5_193
*1440 FILLER_0_5_205
*1441 FILLER_0_5_217
*1442 FILLER_0_5_223
*1443 FILLER_0_5_225
*1444 FILLER_0_5_237
*1445 FILLER_0_5_249
*1446 FILLER_0_5_261
*1447 FILLER_0_5_27
*1448 FILLER_0_5_273
*1449 FILLER_0_5_279
*1450 FILLER_0_5_281
*1451 FILLER_0_5_293
*1452 FILLER_0_5_3
*1453 FILLER_0_5_305
*1454 FILLER_0_5_317
*1455 FILLER_0_5_329
*1456 FILLER_0_5_39
*1457 FILLER_0_5_51
*1458 FILLER_0_5_55
*1459 FILLER_0_5_57
*1460 FILLER_0_5_69
*1461 FILLER_0_5_81
*1462 FILLER_0_5_93
*1463 FILLER_0_6_109
*1464 FILLER_0_6_121
*1465 FILLER_0_6_133
*1466 FILLER_0_6_139
*1467 FILLER_0_6_141
*1468 FILLER_0_6_15
*1469 FILLER_0_6_153
*1470 FILLER_0_6_165
*1471 FILLER_0_6_177
*1472 FILLER_0_6_189
*1473 FILLER_0_6_195
*1474 FILLER_0_6_197
*1475 FILLER_0_6_209
*1476 FILLER_0_6_221
*1477 FILLER_0_6_233
*1478 FILLER_0_6_245
*1479 FILLER_0_6_251
*1480 FILLER_0_6_253
*1481 FILLER_0_6_265
*1482 FILLER_0_6_27
*1483 FILLER_0_6_277
*1484 FILLER_0_6_289
*1485 FILLER_0_6_29
*1486 FILLER_0_6_3
*1487 FILLER_0_6_301
*1488 FILLER_0_6_307
*1489 FILLER_0_6_309
*1490 FILLER_0_6_321
*1491 FILLER_0_6_333
*1492 FILLER_0_6_41