*SPEF "ieee 1481-1999"
*DESIGN "tt_um_tommythorn_4b_cpu_v2"
*DATE "06:29:46 Friday April 12, 2024"
*VENDOR "The OpenROAD Project"
*PROGRAM "OpenROAD"
*VERSION "0889970d1790a2617e69f253221b8bd7626e51dc"
*DESIGN_FLOW "NAME_SCOPE LOCAL" "PIN_CAP NONE"
*DIVIDER /
*DELIMITER :
*BUS_DELIMITER []
*T_UNIT 1 NS
*C_UNIT 1 PF
*R_UNIT 1 OHM
*L_UNIT 1 HENRY

*NAME_MAP
*3 clk
*4 ena
*5 rst_n
*6 ui_in[0]
*7 ui_in[1]
*8 ui_in[2]
*9 ui_in[3]
*10 ui_in[4]
*11 ui_in[5]
*12 ui_in[6]
*13 ui_in[7]
*14 uio_in[0]
*15 uio_in[1]
*16 uio_in[2]
*17 uio_in[3]
*18 uio_in[4]
*19 uio_in[5]
*20 uio_in[6]
*21 uio_in[7]
*22 net9
*23 net10
*24 net11
*25 net12
*26 net13
*27 net14
*28 net15
*29 net16
*30 net17
*31 net18
*32 net19
*33 net20
*34 net21
*35 net22
*36 net23
*37 net24
*38 uo_out[0]
*39 uo_out[1]
*40 uo_out[2]
*41 uo_out[3]
*42 uo_out[4]
*43 uo_out[5]
*44 uo_out[6]
*45 net25
*46 _000_
*47 _001_
*48 _002_
*49 _003_
*50 _004_
*51 _005_
*52 _006_
*53 _007_
*54 _008_
*55 _009_
*56 _010_
*57 _011_
*58 _012_
*59 _013_
*60 _014_
*61 _015_
*62 _016_
*63 _017_
*64 _018_
*65 _019_
*66 _020_
*67 _021_
*68 _022_
*69 _023_
*70 _024_
*71 _025_
*72 _026_
*73 _027_
*74 _028_
*75 _029_
*76 _030_
*77 _031_
*78 _032_
*79 _033_
*80 _034_
*81 _035_
*82 _036_
*83 _037_
*84 _038_
*85 _039_
*86 _040_
*87 _041_
*88 _042_
*89 _043_
*90 _044_
*91 _045_
*92 _046_
*93 _047_
*94 _048_
*95 _049_
*96 _050_
*97 _051_
*98 _052_
*99 _053_
*100 _054_
*101 _055_
*102 _056_
*103 _057_
*104 _058_
*105 _059_
*106 _060_
*107 _061_
*108 _062_
*109 _063_
*110 _064_
*111 _065_
*112 _066_
*113 _067_
*114 _068_
*115 _069_
*116 _070_
*117 _071_
*118 _072_
*119 _073_
*120 _074_
*121 _075_
*122 _076_
*123 _077_
*124 _078_
*125 _079_
*126 _080_
*127 _081_
*128 _082_
*129 _083_
*130 _084_
*131 _085_
*132 _086_
*133 _087_
*134 _088_
*135 _089_
*136 _090_
*137 _091_
*138 _092_
*139 _093_
*140 _094_
*141 _095_
*142 _096_
*143 _097_
*144 _098_
*145 _099_
*146 _100_
*147 _101_
*148 _102_
*149 _103_
*150 _104_
*151 _105_
*152 _106_
*153 _107_
*154 _108_
*155 _109_
*156 _110_
*157 _111_
*158 _112_
*159 _113_
*160 _114_
*161 _115_
*162 _116_
*163 _117_
*164 _118_
*165 _119_
*166 _120_
*167 _121_
*168 _122_
*169 _123_
*170 _124_
*171 _125_
*172 _126_
*173 _127_
*174 _128_
*175 _129_
*176 _130_
*177 _131_
*178 _132_
*179 _133_
*180 _134_
*181 _135_
*182 _136_
*183 _137_
*184 _138_
*185 _139_
*186 _140_
*187 _141_
*188 _142_
*189 _143_
*190 _144_
*191 _145_
*192 _146_
*193 _147_
*194 _148_
*195 _149_
*196 _150_
*197 _151_
*198 _152_
*199 _153_
*200 _154_
*201 _155_
*202 _156_
*203 _157_
*204 _158_
*205 _159_
*206 _160_
*207 _161_
*208 _162_
*209 _163_
*210 _164_
*211 _165_
*212 _166_
*213 _167_
*214 _168_
*215 _169_
*216 _170_
*217 _171_
*218 _172_
*219 _173_
*220 _174_
*221 _175_
*222 _176_
*223 _177_
*224 _178_
*225 _179_
*226 _180_
*227 _181_
*228 _182_
*229 _183_
*230 _184_
*231 _185_
*232 _186_
*233 _187_
*234 _188_
*235 _189_
*236 _190_
*237 _191_
*238 _192_
*239 _193_
*240 _194_
*241 _195_
*242 _196_
*243 _197_
*244 _198_
*245 _199_
*246 _200_
*247 _201_
*248 _202_
*249 _203_
*250 _204_
*251 _205_
*252 _206_
*253 _207_
*254 _208_
*255 _209_
*256 _210_
*257 _211_
*258 _212_
*259 _213_
*260 _214_
*261 _215_
*262 _216_
*263 _217_
*264 _218_
*265 _219_
*266 _220_
*267 _221_
*268 _222_
*269 _223_
*270 _224_
*271 _225_
*272 _226_
*273 _227_
*274 _228_
*275 _229_
*276 _230_
*277 clknet_0_clk
*278 clknet_2_0__leaf_clk
*279 clknet_2_1__leaf_clk
*280 clknet_2_2__leaf_clk
*281 clknet_2_3__leaf_clk
*282 code\[0\]\[0\]
*283 code\[0\]\[1\]
*284 code\[1\]\[0\]
*285 code\[1\]\[1\]
*286 code\[2\]\[0\]
*287 code\[2\]\[1\]
*288 code\[3\]\[0\]
*289 code\[3\]\[1\]
*290 code\[4\]\[0\]
*291 code\[4\]\[1\]
*292 code\[5\]\[0\]
*293 code\[5\]\[1\]
*294 code\[6\]\[0\]
*295 code\[6\]\[1\]
*296 code\[7\]\[0\]
*297 code\[7\]\[1\]
*298 data\[0\]\[0\]
*299 data\[0\]\[1\]
*300 data\[0\]\[2\]
*301 data\[0\]\[3\]
*302 data\[1\]\[0\]
*303 data\[1\]\[1\]
*304 data\[1\]\[2\]
*305 data\[1\]\[3\]
*306 data\[2\]\[0\]
*307 data\[2\]\[1\]
*308 data\[2\]\[2\]
*309 data\[2\]\[3\]
*310 data\[3\]\[0\]
*311 data\[3\]\[1\]
*312 data\[3\]\[2\]
*313 data\[3\]\[3\]
*314 data\[4\]\[0\]
*315 data\[4\]\[1\]
*316 data\[4\]\[2\]
*317 data\[4\]\[3\]
*318 data\[5\]\[0\]
*319 data\[5\]\[1\]
*320 data\[5\]\[2\]
*321 data\[5\]\[3\]
*322 data\[6\]\[0\]
*323 data\[6\]\[1\]
*324 data\[6\]\[2\]
*325 data\[6\]\[3\]
*326 data\[7\]\[0\]
*327 data\[7\]\[1\]
*328 data\[7\]\[2\]
*329 data\[7\]\[3\]
*330 net1
*331 net2
*332 net26
*333 net27
*334 net28
*335 net29
*336 net3
*337 net30
*338 net31
*339 net32
*340 net33
*341 net34
*342 net35
*343 net36
*344 net37
*345 net38
*346 net39
*347 net4
*348 net40
*349 net41
*350 net42
*351 net43
*352 net44
*353 net45
*354 net46
*355 net47
*356 net48
*357 net49
*358 net5
*359 net50
*360 net51
*361 net52
*362 net53
*363 net54
*364 net55
*365 net56
*366 net57
*367 net58
*368 net59
*369 net6
*370 net60
*371 net61
*372 net62
*373 net63
*374 net64
*375 net65
*376 net66
*377 net67
*378 net68
*379 net69
*380 net7
*381 net70
*382 net71
*383 net72
*384 net73
*385 net8
*386 FILLER_0_0_109
*387 FILLER_0_0_113
*388 FILLER_0_0_125
*389 FILLER_0_0_137
*390 FILLER_0_0_141
*391 FILLER_0_0_15
*392 FILLER_0_0_153
*393 FILLER_0_0_165
*394 FILLER_0_0_169
*395 FILLER_0_0_181
*396 FILLER_0_0_193
*397 FILLER_0_0_197
*398 FILLER_0_0_209
*399 FILLER_0_0_221
*400 FILLER_0_0_225
*401 FILLER_0_0_237
*402 FILLER_0_0_249
*403 FILLER_0_0_253
*404 FILLER_0_0_265
*405 FILLER_0_0_27
*406 FILLER_0_0_277
*407 FILLER_0_0_281
*408 FILLER_0_0_29
*409 FILLER_0_0_293
*410 FILLER_0_0_3
*411 FILLER_0_0_305
*412 FILLER_0_0_309
*413 FILLER_0_0_321
*414 FILLER_0_0_333
*415 FILLER_0_0_41
*416 FILLER_0_0_53
*417 FILLER_0_0_57
*418 FILLER_0_0_69
*419 FILLER_0_0_81
*420 FILLER_0_0_85
*421 FILLER_0_0_97
*422 FILLER_0_10_109
*423 FILLER_0_10_121
*424 FILLER_0_10_133
*425 FILLER_0_10_139
*426 FILLER_0_10_141
*427 FILLER_0_10_15
*428 FILLER_0_10_153
*429 FILLER_0_10_165
*430 FILLER_0_10_177
*431 FILLER_0_10_189
*432 FILLER_0_10_195
*433 FILLER_0_10_197
*434 FILLER_0_10_209
*435 FILLER_0_10_221
*436 FILLER_0_10_233
*437 FILLER_0_10_245
*438 FILLER_0_10_251
*439 FILLER_0_10_253
*440 FILLER_0_10_265
*441 FILLER_0_10_27
*442 FILLER_0_10_277
*443 FILLER_0_10_289
*444 FILLER_0_10_29
*445 FILLER_0_10_3
*446 FILLER_0_10_301
*447 FILLER_0_10_307
*448 FILLER_0_10_309
*449 FILLER_0_10_321
*450 FILLER_0_10_333
*451 FILLER_0_10_41
*452 FILLER_0_10_53
*453 FILLER_0_10_65
*454 FILLER_0_10_77
*455 FILLER_0_10_83
*456 FILLER_0_10_85
*457 FILLER_0_10_97
*458 FILLER_0_11_105
*459 FILLER_0_11_111
*460 FILLER_0_11_113
*461 FILLER_0_11_125
*462 FILLER_0_11_137
*463 FILLER_0_11_149
*464 FILLER_0_11_15
*465 FILLER_0_11_161
*466 FILLER_0_11_167
*467 FILLER_0_11_169
*468 FILLER_0_11_181
*469 FILLER_0_11_193
*470 FILLER_0_11_205
*471 FILLER_0_11_217
*472 FILLER_0_11_223
*473 FILLER_0_11_225
*474 FILLER_0_11_237
*475 FILLER_0_11_249
*476 FILLER_0_11_261
*477 FILLER_0_11_27
*478 FILLER_0_11_273
*479 FILLER_0_11_279
*480 FILLER_0_11_281
*481 FILLER_0_11_293
*482 FILLER_0_11_3
*483 FILLER_0_11_305
*484 FILLER_0_11_317
*485 FILLER_0_11_329
*486 FILLER_0_11_39
*487 FILLER_0_11_51
*488 FILLER_0_11_55
*489 FILLER_0_11_57
*490 FILLER_0_11_69
*491 FILLER_0_11_81
*492 FILLER_0_11_93
*493 FILLER_0_12_109
*494 FILLER_0_12_121
*495 FILLER_0_12_133
*496 FILLER_0_12_139
*497 FILLER_0_12_141
*498 FILLER_0_12_15
*499 FILLER_0_12_153
*500 FILLER_0_12_165
*501 FILLER_0_12_177
*502 FILLER_0_12_189
*503 FILLER_0_12_195
*504 FILLER_0_12_197
*505 FILLER_0_12_209
*506 FILLER_0_12_221
*507 FILLER_0_12_233
*508 FILLER_0_12_245
*509 FILLER_0_12_251
*510 FILLER_0_12_253
*511 FILLER_0_12_265
*512 FILLER_0_12_27
*513 FILLER_0_12_277
*514 FILLER_0_12_289
*515 FILLER_0_12_29
*516 FILLER_0_12_3
*517 FILLER_0_12_301
*518 FILLER_0_12_307
*519 FILLER_0_12_309
*520 FILLER_0_12_321
*521 FILLER_0_12_333
*522 FILLER_0_12_41
*523 FILLER_0_12_53
*524 FILLER_0_12_65
*525 FILLER_0_12_77
*526 FILLER_0_12_83
*527 FILLER_0_12_85
*528 FILLER_0_12_97
*529 FILLER_0_13_105
*530 FILLER_0_13_111
*531 FILLER_0_13_113
*532 FILLER_0_13_125
*533 FILLER_0_13_137
*534 FILLER_0_13_149
*535 FILLER_0_13_15
*536 FILLER_0_13_161
*537 FILLER_0_13_167
*538 FILLER_0_13_169
*539 FILLER_0_13_181
*540 FILLER_0_13_193
*541 FILLER_0_13_205
*542 FILLER_0_13_217
*543 FILLER_0_13_223
*544 FILLER_0_13_225
*545 FILLER_0_13_237
*546 FILLER_0_13_249
*547 FILLER_0_13_261
*548 FILLER_0_13_27
*549 FILLER_0_13_273
*550 FILLER_0_13_279
*551 FILLER_0_13_281
*552 FILLER_0_13_293
*553 FILLER_0_13_3
*554 FILLER_0_13_305
*555 FILLER_0_13_317
*556 FILLER_0_13_329
*557 FILLER_0_13_39
*558 FILLER_0_13_51
*559 FILLER_0_13_55
*560 FILLER_0_13_57
*561 FILLER_0_13_69
*562 FILLER_0_13_81
*563 FILLER_0_13_93
*564 FILLER_0_14_109
*565 FILLER_0_14_121
*566 FILLER_0_14_133
*567 FILLER_0_14_139
*568 FILLER_0_14_141
*569 FILLER_0_14_15
*570 FILLER_0_14_153
*571 FILLER_0_14_165
*572 FILLER_0_14_177
*573 FILLER_0_14_189
*574 FILLER_0_14_195
*575 FILLER_0_14_197
*576 FILLER_0_14_209
*577 FILLER_0_14_221
*578 FILLER_0_14_233
*579 FILLER_0_14_245
*580 FILLER_0_14_251
*581 FILLER_0_14_253
*582 FILLER_0_14_265
*583 FILLER_0_14_27
*584 FILLER_0_14_277
*585 FILLER_0_14_289
*586 FILLER_0_14_29
*587 FILLER_0_14_3
*588 FILLER_0_14_301
*589 FILLER_0_14_307
*590 FILLER_0_14_309
*591 FILLER_0_14_321
*592 FILLER_0_14_333
*593 FILLER_0_14_41
*594 FILLER_0_14_53
*595 FILLER_0_14_65
*596 FILLER_0_14_77
*597 FILLER_0_14_83
*598 FILLER_0_14_85
*599 FILLER_0_14_97
*600 FILLER_0_15_105
*601 FILLER_0_15_111
*602 FILLER_0_15_113
*603 FILLER_0_15_125
*604 FILLER_0_15_137
*605 FILLER_0_15_149
*606 FILLER_0_15_15
*607 FILLER_0_15_161
*608 FILLER_0_15_167
*609 FILLER_0_15_169
*610 FILLER_0_15_181
*611 FILLER_0_15_193
*612 FILLER_0_15_205
*613 FILLER_0_15_217
*614 FILLER_0_15_223
*615 FILLER_0_15_225
*616 FILLER_0_15_237
*617 FILLER_0_15_249
*618 FILLER_0_15_261
*619 FILLER_0_15_27
*620 FILLER_0_15_273
*621 FILLER_0_15_279
*622 FILLER_0_15_281
*623 FILLER_0_15_293
*624 FILLER_0_15_3
*625 FILLER_0_15_305
*626 FILLER_0_15_317
*627 FILLER_0_15_329
*628 FILLER_0_15_39
*629 FILLER_0_15_51
*630 FILLER_0_15_55
*631 FILLER_0_15_57
*632 FILLER_0_15_69
*633 FILLER_0_15_81
*634 FILLER_0_15_93
*635 FILLER_0_16_109
*636 FILLER_0_16_121
*637 FILLER_0_16_133
*638 FILLER_0_16_139
*639 FILLER_0_16_141
*640 FILLER_0_16_15
*641 FILLER_0_16_153
*642 FILLER_0_16_165
*643 FILLER_0_16_177
*644 FILLER_0_16_189
*645 FILLER_0_16_195
*646 FILLER_0_16_197
*647 FILLER_0_16_209
*648 FILLER_0_16_221
*649 FILLER_0_16_233
*650 FILLER_0_16_245
*651 FILLER_0_16_251
*652 FILLER_0_16_253
*653 FILLER_0_16_265
*654 FILLER_0_16_27
*655 FILLER_0_16_277
*656 FILLER_0_16_289
*657 FILLER_0_16_29
*658 FILLER_0_16_3
*659 FILLER_0_16_301
*660 FILLER_0_16_307
*661 FILLER_0_16_309
*662 FILLER_0_16_321
*663 FILLER_0_16_333
*664 FILLER_0_16_41
*665 FILLER_0_16_53
*666 FILLER_0_16_65
*667 FILLER_0_16_77
*668 FILLER_0_16_83
*669 FILLER_0_16_85
*670 FILLER_0_16_97
*671 FILLER_0_17_105
*672 FILLER_0_17_111
*673 FILLER_0_17_113
*674 FILLER_0_17_125
*675 FILLER_0_17_137
*676 FILLER_0_17_149
*677 FILLER_0_17_15
*678 FILLER_0_17_161
*679 FILLER_0_17_167
*680 FILLER_0_17_169
*681 FILLER_0_17_181
*682 FILLER_0_17_193
*683 FILLER_0_17_205
*684 FILLER_0_17_217
*685 FILLER_0_17_223
*686 FILLER_0_17_225
*687 FILLER_0_17_237
*688 FILLER_0_17_249
*689 FILLER_0_17_261
*690 FILLER_0_17_27
*691 FILLER_0_17_273
*692 FILLER_0_17_279
*693 FILLER_0_17_281
*694 FILLER_0_17_293
*695 FILLER_0_17_3
*696 FILLER_0_17_305
*697 FILLER_0_17_317
*698 FILLER_0_17_329
*699 FILLER_0_17_39
*700 FILLER_0_17_51
*701 FILLER_0_17_55
*702 FILLER_0_17_57
*703 FILLER_0_17_69
*704 FILLER_0_17_81
*705 FILLER_0_17_93
*706 FILLER_0_18_109
*707 FILLER_0_18_121
*708 FILLER_0_18_133
*709 FILLER_0_18_139
*710 FILLER_0_18_141
*711 FILLER_0_18_15
*712 FILLER_0_18_153
*713 FILLER_0_18_165
*714 FILLER_0_18_177
*715 FILLER_0_18_189
*716 FILLER_0_18_195
*717 FILLER_0_18_197
*718 FILLER_0_18_209
*719 FILLER_0_18_221
*720 FILLER_0_18_233
*721 FILLER_0_18_245
*722 FILLER_0_18_251
*723 FILLER_0_18_253
*724 FILLER_0_18_265
*725 FILLER_0_18_27
*726 FILLER_0_18_277
*727 FILLER_0_18_289
*728 FILLER_0_18_29
*729 FILLER_0_18_3
*730 FILLER_0_18_301
*731 FILLER_0_18_307
*732 FILLER_0_18_309
*733 FILLER_0_18_321
*734 FILLER_0_18_333
*735 FILLER_0_18_41
*736 FILLER_0_18_53
*737 FILLER_0_18_65
*738 FILLER_0_18_77
*739 FILLER_0_18_83
*740 FILLER_0_18_85
*741 FILLER_0_18_97
*742 FILLER_0_19_105
*743 FILLER_0_19_111
*744 FILLER_0_19_113
*745 FILLER_0_19_125
*746 FILLER_0_19_137
*747 FILLER_0_19_149
*748 FILLER_0_19_15
*749 FILLER_0_19_161
*750 FILLER_0_19_167
*751 FILLER_0_19_169
*752 FILLER_0_19_181
*753 FILLER_0_19_193
*754 FILLER_0_19_205
*755 FILLER_0_19_217
*756 FILLER_0_19_223
*757 FILLER_0_19_225
*758 FILLER_0_19_237
*759 FILLER_0_19_249
*760 FILLER_0_19_261
*761 FILLER_0_19_27
*762 FILLER_0_19_273
*763 FILLER_0_19_279
*764 FILLER_0_19_281
*765 FILLER_0_19_293
*766 FILLER_0_19_3
*767 FILLER_0_19_305
*768 FILLER_0_19_317
*769 FILLER_0_19_329
*770 FILLER_0_19_39
*771 FILLER_0_19_51
*772 FILLER_0_19_55
*773 FILLER_0_19_57
*774 FILLER_0_19_69
*775 FILLER_0_19_81
*776 FILLER_0_19_93
*777 FILLER_0_1_105
*778 FILLER_0_1_111
*779 FILLER_0_1_113
*780 FILLER_0_1_125
*781 FILLER_0_1_137
*782 FILLER_0_1_149
*783 FILLER_0_1_15
*784 FILLER_0_1_161
*785 FILLER_0_1_167
*786 FILLER_0_1_169
*787 FILLER_0_1_181
*788 FILLER_0_1_193
*789 FILLER_0_1_205
*790 FILLER_0_1_217
*791 FILLER_0_1_223
*792 FILLER_0_1_225
*793 FILLER_0_1_237
*794 FILLER_0_1_249
*795 FILLER_0_1_261
*796 FILLER_0_1_27
*797 FILLER_0_1_273
*798 FILLER_0_1_279
*799 FILLER_0_1_281
*800 FILLER_0_1_293
*801 FILLER_0_1_3
*802 FILLER_0_1_305
*803 FILLER_0_1_317
*804 FILLER_0_1_329
*805 FILLER_0_1_39
*806 FILLER_0_1_51
*807 FILLER_0_1_55
*808 FILLER_0_1_57
*809 FILLER_0_1_69
*810 FILLER_0_1_81
*811 FILLER_0_1_93
*812 FILLER_0_20_109
*813 FILLER_0_20_121
*814 FILLER_0_20_133
*815 FILLER_0_20_139
*816 FILLER_0_20_141
*817 FILLER_0_20_15
*818 FILLER_0_20_153
*819 FILLER_0_20_165
*820 FILLER_0_20_177
*821 FILLER_0_20_189
*822 FILLER_0_20_195
*823 FILLER_0_20_197
*824 FILLER_0_20_209
*825 FILLER_0_20_221
*826 FILLER_0_20_233
*827 FILLER_0_20_245
*828 FILLER_0_20_251
*829 FILLER_0_20_253
*830 FILLER_0_20_265
*831 FILLER_0_20_27
*832 FILLER_0_20_277
*833 FILLER_0_20_289
*834 FILLER_0_20_29
*835 FILLER_0_20_3
*836 FILLER_0_20_301
*837 FILLER_0_20_307
*838 FILLER_0_20_309
*839 FILLER_0_20_321
*840 FILLER_0_20_333
*841 FILLER_0_20_41
*842 FILLER_0_20_53
*843 FILLER_0_20_65
*844 FILLER_0_20_77
*845 FILLER_0_20_83
*846 FILLER_0_20_85
*847 FILLER_0_20_97
*848 FILLER_0_21_105
*849 FILLER_0_21_111
*850 FILLER_0_21_113
*851 FILLER_0_21_125
*852 FILLER_0_21_137
*853 FILLER_0_21_149
*854 FILLER_0_21_15
*855 FILLER_0_21_157
*856 FILLER_0_21_162
*857 FILLER_0_21_169
*858 FILLER_0_21_182
*859 FILLER_0_21_202
*860 FILLER_0_21_210
*861 FILLER_0_21_233
*862 FILLER_0_21_245
*863 FILLER_0_21_257
*864 FILLER_0_21_269
*865 FILLER_0_21_27
*866 FILLER_0_21_277
*867 FILLER_0_21_281
*868 FILLER_0_21_293
*869 FILLER_0_21_3
*870 FILLER_0_21_305
*871 FILLER_0_21_317
*872 FILLER_0_21_329
*873 FILLER_0_21_39
*874 FILLER_0_21_51
*875 FILLER_0_21_55
*876 FILLER_0_21_57
*877 FILLER_0_21_69
*878 FILLER_0_21_81
*879 FILLER_0_21_93
*880 FILLER_0_22_109
*881 FILLER_0_22_121
*882 FILLER_0_22_125
*883 FILLER_0_22_129
*884 FILLER_0_22_137
*885 FILLER_0_22_141
*886 FILLER_0_22_149
*887 FILLER_0_22_15
*888 FILLER_0_22_191
*889 FILLER_0_22_195
*890 FILLER_0_22_197
*891 FILLER_0_22_233
*892 FILLER_0_22_245
*893 FILLER_0_22_251
*894 FILLER_0_22_253
*895 FILLER_0_22_265
*896 FILLER_0_22_27
*897 FILLER_0_22_277
*898 FILLER_0_22_289
*899 FILLER_0_22_29
*900 FILLER_0_22_3
*901 FILLER_0_22_301
*902 FILLER_0_22_307
*903 FILLER_0_22_309
*904 FILLER_0_22_321
*905 FILLER_0_22_333
*906 FILLER_0_22_41
*907 FILLER_0_22_53
*908 FILLER_0_22_65
*909 FILLER_0_22_77
*910 FILLER_0_22_83
*911 FILLER_0_22_85
*912 FILLER_0_22_97
*913 FILLER_0_23_101
*914 FILLER_0_23_113
*915 FILLER_0_23_138
*916 FILLER_0_23_144
*917 FILLER_0_23_15
*918 FILLER_0_23_161
*919 FILLER_0_23_167
*920 FILLER_0_23_169
*921 FILLER_0_23_175
*922 FILLER_0_23_185
*923 FILLER_0_23_194
*924 FILLER_0_23_222
*925 FILLER_0_23_241
*926 FILLER_0_23_253
*927 FILLER_0_23_265
*928 FILLER_0_23_27
*929 FILLER_0_23_277
*930 FILLER_0_23_281
*931 FILLER_0_23_293
*932 FILLER_0_23_3
*933 FILLER_0_23_305
*934 FILLER_0_23_317
*935 FILLER_0_23_329
*936 FILLER_0_23_39
*937 FILLER_0_23_51
*938 FILLER_0_23_55
*939 FILLER_0_23_57
*940 FILLER_0_23_69
*941 FILLER_0_23_81
*942 FILLER_0_23_93
*943 FILLER_0_24_122
*944 FILLER_0_24_139
*945 FILLER_0_24_141
*946 FILLER_0_24_147
*947 FILLER_0_24_15
*948 FILLER_0_24_185
*949 FILLER_0_24_193
*950 FILLER_0_24_197
*951 FILLER_0_24_209
*952 FILLER_0_24_213
*953 FILLER_0_24_242
*954 FILLER_0_24_250
*955 FILLER_0_24_253
*956 FILLER_0_24_260
*957 FILLER_0_24_27
*958 FILLER_0_24_29
*959 FILLER_0_24_3
*960 FILLER_0_24_305
*961 FILLER_0_24_309
*962 FILLER_0_24_321
*963 FILLER_0_24_333
*964 FILLER_0_24_41
*965 FILLER_0_24_53
*966 FILLER_0_24_65
*967 FILLER_0_24_77
*968 FILLER_0_24_83
*969 FILLER_0_24_85
*970 FILLER_0_25_108
*971 FILLER_0_25_113
*972 FILLER_0_25_117
*973 FILLER_0_25_15
*974 FILLER_0_25_169
*975 FILLER_0_25_189
*976 FILLER_0_25_195
*977 FILLER_0_25_211
*978 FILLER_0_25_215
*979 FILLER_0_25_245
*980 FILLER_0_25_251
*981 FILLER_0_25_27
*982 FILLER_0_25_281
*983 FILLER_0_25_291
*984 FILLER_0_25_3
*985 FILLER_0_25_308
*986 FILLER_0_25_39
*987 FILLER_0_25_51
*988 FILLER_0_25_55
*989 FILLER_0_25_57
*990 FILLER_0_25_69
*991 FILLER_0_25_81
*992 FILLER_0_26_118
*993 FILLER_0_26_122
*994 FILLER_0_26_139
*995 FILLER_0_26_15
*996 FILLER_0_26_152
*997 FILLER_0_26_195
*998 FILLER_0_26_197
*999 FILLER_0_26_203
*1000 FILLER_0_26_214
*1001 FILLER_0_26_222
*1002 FILLER_0_26_237
*1003 FILLER_0_26_243
*1004 FILLER_0_26_251
*1005 FILLER_0_26_253
*1006 FILLER_0_26_261
*1007 FILLER_0_26_27
*1008 FILLER_0_26_29
*1009 FILLER_0_26_292
*1010 FILLER_0_26_3
*1011 FILLER_0_26_302
*1012 FILLER_0_26_331
*1013 FILLER_0_26_41
*1014 FILLER_0_26_53
*1015 FILLER_0_26_65
*1016 FILLER_0_26_77
*1017 FILLER_0_26_81
*1018 FILLER_0_27_105
*1019 FILLER_0_27_111
*1020 FILLER_0_27_113
*1021 FILLER_0_27_15
*1022 FILLER_0_27_156
*1023 FILLER_0_27_167
*1024 FILLER_0_27_177
*1025 FILLER_0_27_181
*1026 FILLER_0_27_217
*1027 FILLER_0_27_223
*1028 FILLER_0_27_241
*1029 FILLER_0_27_245
*1030 FILLER_0_27_252
*1031 FILLER_0_27_27
*1032 FILLER_0_27_278
*1033 FILLER_0_27_281
*1034 FILLER_0_27_3
*1035 FILLER_0_27_329
*1036 FILLER_0_27_39
*1037 FILLER_0_27_51
*1038 FILLER_0_27_55
*1039 FILLER_0_27_57
*1040 FILLER_0_27_69
*1041 FILLER_0_27_73
*1042 FILLER_0_27_90
*1043 FILLER_0_27_96
*1044 FILLER_0_28_103
*1045 FILLER_0_28_131
*1046 FILLER_0_28_15
*1047 FILLER_0_28_157
*1048 FILLER_0_28_163
*1049 FILLER_0_28_167
*1050 FILLER_0_28_178
*1051 FILLER_0_28_192
*1052 FILLER_0_28_197
*1053 FILLER_0_28_242
*1054 FILLER_0_28_249
*1055 FILLER_0_28_253
*1056 FILLER_0_28_257
*1057 FILLER_0_28_27
*1058 FILLER_0_28_289
*1059 FILLER_0_28_29
*1060 FILLER_0_28_293
*1061 FILLER_0_28_299
*1062 FILLER_0_28_3
*1063 FILLER_0_28_309
*1064 FILLER_0_28_321
*1065 FILLER_0_28_330
*1066 FILLER_0_28_334
*1067 FILLER_0_28_41
*1068 FILLER_0_28_53
*1069 FILLER_0_28_59
*1070 FILLER_0_29_105
*1071 FILLER_0_29_145
*1072 FILLER_0_29_15
*1073 FILLER_0_29_153
*1074 FILLER_0_29_157
*1075 FILLER_0_29_165
*1076 FILLER_0_29_175
*1077 FILLER_0_29_196
*1078 FILLER_0_29_204
*1079 FILLER_0_29_221
*1080 FILLER_0_29_231
*1081 FILLER_0_29_27
*1082 FILLER_0_29_281
*1083 FILLER_0_29_285
*1084 FILLER_0_29_3
*1085 FILLER_0_29_306
*1086 FILLER_0_29_310
*1087 FILLER_0_29_330
*1088 FILLER_0_29_334
*1089 FILLER_0_29_39
*1090 FILLER_0_29_51
*1091 FILLER_0_29_55
*1092 FILLER_0_29_57
*1093 FILLER_0_29_69
*1094 FILLER_0_2_109
*1095 FILLER_0_2_121
*1096 FILLER_0_2_133
*1097 FILLER_0_2_139
*1098 FILLER_0_2_141
*1099 FILLER_0_2_15
*1100 FILLER_0_2_153
*1101 FILLER_0_2_165
*1102 FILLER_0_2_177
*1103 FILLER_0_2_189
*1104 FILLER_0_2_195
*1105 FILLER_0_2_197
*1106 FILLER_0_2_209
*1107 FILLER_0_2_221
*1108 FILLER_0_2_233
*1109 FILLER_0_2_245
*1110 FILLER_0_2_251
*1111 FILLER_0_2_253
*1112 FILLER_0_2_265
*1113 FILLER_0_2_27
*1114 FILLER_0_2_277
*1115 FILLER_0_2_289
*1116 FILLER_0_2_29
*1117 FILLER_0_2_3
*1118 FILLER_0_2_301
*1119 FILLER_0_2_307
*1120 FILLER_0_2_309
*1121 FILLER_0_2_321
*1122 FILLER_0_2_333
*1123 FILLER_0_2_41
*1124 FILLER_0_2_53
*1125 FILLER_0_2_65
*1126 FILLER_0_2_77
*1127 FILLER_0_2_83
*1128 FILLER_0_2_85
*1129 FILLER_0_2_97
*1130 FILLER_0_30_111
*1131 FILLER_0_30_15
*1132 FILLER_0_30_167
*1133 FILLER_0_30_175
*1134 FILLER_0_30_193
*1135 FILLER_0_30_197
*1136 FILLER_0_30_229
*1137 FILLER_0_30_241
*1138 FILLER_0_30_249
*1139 FILLER_0_30_253
*1140 FILLER_0_30_265
*1141 FILLER_0_30_27
*1142 FILLER_0_30_278
*1143 FILLER_0_30_29
*1144 FILLER_0_30_3
*1145 FILLER_0_30_307
*1146 FILLER_0_30_309
*1147 FILLER_0_30_322
*1148 FILLER_0_30_331
*1149 FILLER_0_30_41
*1150 FILLER_0_30_53
*1151 FILLER_0_30_65
*1152 FILLER_0_31_101
*1153 FILLER_0_31_110
*1154 FILLER_0_31_113
*1155 FILLER_0_31_147
*1156 FILLER_0_31_15
*1157 FILLER_0_31_165
*1158 FILLER_0_31_169
*1159 FILLER_0_31_223
*1160 FILLER_0_31_225
*1161 FILLER_0_31_237
*1162 FILLER_0_31_245
*1163 FILLER_0_31_249
*1164 FILLER_0_31_253
*1165 FILLER_0_31_265
*1166 FILLER_0_31_27
*1167 FILLER_0_31_275
*1168 FILLER_0_31_279
*1169 FILLER_0_31_281
*1170 FILLER_0_31_287
*1171 FILLER_0_31_3
*1172 FILLER_0_31_313
*1173 FILLER_0_31_331
*1174 FILLER_0_31_39
*1175 FILLER_0_31_51
*1176 FILLER_0_31_55
*1177 FILLER_0_31_57
*1178 FILLER_0_31_69
*1179 FILLER_0_31_77
*1180 FILLER_0_31_85
*1181 FILLER_0_31_95
*1182 FILLER_0_32_118
*1183 FILLER_0_32_135
*1184 FILLER_0_32_139
*1185 FILLER_0_32_15
*1186 FILLER_0_32_160
*1187 FILLER_0_32_172
*1188 FILLER_0_32_195
*1189 FILLER_0_32_197
*1190 FILLER_0_32_213
*1191 FILLER_0_32_239
*1192 FILLER_0_32_269
*1193 FILLER_0_32_27
*1194 FILLER_0_32_29
*1195 FILLER_0_32_3
*1196 FILLER_0_32_322
*1197 FILLER_0_32_332
*1198 FILLER_0_32_41
*1199 FILLER_0_32_53
*1200 FILLER_0_32_65
*1201 FILLER_0_32_73
*1202 FILLER_0_33_122
*1203 FILLER_0_33_132
*1204 FILLER_0_33_147
*1205 FILLER_0_33_15
*1206 FILLER_0_33_173
*1207 FILLER_0_33_185
*1208 FILLER_0_33_189
*1209 FILLER_0_33_203
*1210 FILLER_0_33_215
*1211 FILLER_0_33_223
*1212 FILLER_0_33_237
*1213 FILLER_0_33_245
*1214 FILLER_0_33_27
*1215 FILLER_0_33_275
*1216 FILLER_0_33_279
*1217 FILLER_0_33_289
*1218 FILLER_0_33_293
*1219 FILLER_0_33_3
*1220 FILLER_0_33_300
*1221 FILLER_0_33_323
*1222 FILLER_0_33_332
*1223 FILLER_0_33_39
*1224 FILLER_0_33_51
*1225 FILLER_0_33_55
*1226 FILLER_0_33_57
*1227 FILLER_0_33_69
*1228 FILLER_0_33_99
*1229 FILLER_0_34_101
*1230 FILLER_0_34_141
*1231 FILLER_0_34_15
*1232 FILLER_0_34_153
*1233 FILLER_0_34_164
*1234 FILLER_0_34_176
*1235 FILLER_0_34_191
*1236 FILLER_0_34_195
*1237 FILLER_0_34_206
*1238 FILLER_0_34_218
*1239 FILLER_0_34_224
*1240 FILLER_0_34_234
*1241 FILLER_0_34_253
*1242 FILLER_0_34_27
*1243 FILLER_0_34_273
*1244 FILLER_0_34_279
*1245 FILLER_0_34_29
*1246 FILLER_0_34_291
*1247 FILLER_0_34_3
*1248 FILLER_0_34_333
*1249 FILLER_0_34_41
*1250 FILLER_0_34_53
*1251 FILLER_0_34_65
*1252 FILLER_0_34_77
*1253 FILLER_0_34_83
*1254 FILLER_0_34_85
*1255 FILLER_0_34_97
*1256 FILLER_0_35_108
*1257 FILLER_0_35_113
*1258 FILLER_0_35_139
*1259 FILLER_0_35_15
*1260 FILLER_0_35_158
*1261 FILLER_0_35_167
*1262 FILLER_0_35_176
*1263 FILLER_0_35_188
*1264 FILLER_0_35_213
*1265 FILLER_0_35_217
*1266 FILLER_0_35_239
*1267 FILLER_0_35_267
*1268 FILLER_0_35_27
*1269 FILLER_0_35_271
*1270 FILLER_0_35_281
*1271 FILLER_0_35_293
*1272 FILLER_0_35_3
*1273 FILLER_0_35_334
*1274 FILLER_0_35_39
*1275 FILLER_0_35_51
*1276 FILLER_0_35_55
*1277 FILLER_0_35_57
*1278 FILLER_0_35_69
*1279 FILLER_0_35_81
*1280 FILLER_0_35_93
*1281 FILLER_0_36_109
*1282 FILLER_0_36_121
*1283 FILLER_0_36_133
*1284 FILLER_0_36_139
*1285 FILLER_0_36_148
*1286 FILLER_0_36_15
*1287 FILLER_0_36_158
*1288 FILLER_0_36_187
*1289 FILLER_0_36_206
*1290 FILLER_0_36_230
*1291 FILLER_0_36_238
*1292 FILLER_0_36_256
*1293 FILLER_0_36_27
*1294 FILLER_0_36_288
*1295 FILLER_0_36_29
*1296 FILLER_0_36_296
*1297 FILLER_0_36_3
*1298 FILLER_0_36_304
*1299 FILLER_0_36_333
*1300 FILLER_0_36_41
*1301 FILLER_0_36_53
*1302 FILLER_0_36_65
*1303 FILLER_0_36_77
*1304 FILLER_0_36_83
*1305 FILLER_0_36_85
*1306 FILLER_0_36_97
*1307 FILLER_0_37_105
*1308 FILLER_0_37_111
*1309 FILLER_0_37_113
*1310 FILLER_0_37_125
*1311 FILLER_0_37_133
*1312 FILLER_0_37_15
*1313 FILLER_0_37_153
*1314 FILLER_0_37_167
*1315 FILLER_0_37_177
*1316 FILLER_0_37_185
*1317 FILLER_0_37_225
*1318 FILLER_0_37_231
*1319 FILLER_0_37_27
*1320 FILLER_0_37_270
*1321 FILLER_0_37_278
*1322 FILLER_0_37_287
*1323 FILLER_0_37_294
*1324 FILLER_0_37_3
*1325 FILLER_0_37_329
*1326 FILLER_0_37_39
*1327 FILLER_0_37_51
*1328 FILLER_0_37_55
*1329 FILLER_0_37_57
*1330 FILLER_0_37_69
*1331 FILLER_0_37_81
*1332 FILLER_0_37_93
*1333 FILLER_0_38_10
*1334 FILLER_0_38_102
*1335 FILLER_0_38_106
*1336 FILLER_0_38_110
*1337 FILLER_0_38_113
*1338 FILLER_0_38_118
*1339 FILLER_0_38_122
*1340 FILLER_0_38_126
*1341 FILLER_0_38_130
*1342 FILLER_0_38_134
*1343 FILLER_0_38_14
*1344 FILLER_0_38_144
*1345 FILLER_0_38_150
*1346 FILLER_0_38_158
*1347 FILLER_0_38_164
*1348 FILLER_0_38_169
*1349 FILLER_0_38_18
*1350 FILLER_0_38_181
*1351 FILLER_0_38_193
*1352 FILLER_0_38_202
*1353 FILLER_0_38_214
*1354 FILLER_0_38_22
*1355 FILLER_0_38_222
*1356 FILLER_0_38_225
*1357 FILLER_0_38_237
*1358 FILLER_0_38_249
*1359 FILLER_0_38_253
*1360 FILLER_0_38_262
*1361 FILLER_0_38_266
*1362 FILLER_0_38_270
*1363 FILLER_0_38_274
*1364 FILLER_0_38_279
*1365 FILLER_0_38_281
*1366 FILLER_0_38_290
*1367 FILLER_0_38_302
*1368 FILLER_0_38_32
*1369 FILLER_0_38_334
*1370 FILLER_0_38_38
*1371 FILLER_0_38_42
*1372 FILLER_0_38_46
*1373 FILLER_0_38_50
*1374 FILLER_0_38_54
*1375 FILLER_0_38_57
*1376 FILLER_0_38_6
*1377 FILLER_0_38_62
*1378 FILLER_0_38_66
*1379 FILLER_0_38_70
*1380 FILLER_0_38_74
*1381 FILLER_0_38_78
*1382 FILLER_0_38_88
*1383 FILLER_0_38_94
*1384 FILLER_0_38_98
*1385 FILLER_0_3_105
*1386 FILLER_0_3_111
*1387 FILLER_0_3_113
*1388 FILLER_0_3_125
*1389 FILLER_0_3_137
*1390 FILLER_0_3_149
*1391 FILLER_0_3_15
*1392 FILLER_0_3_161
*1393 FILLER_0_3_167
*1394 FILLER_0_3_169
*1395 FILLER_0_3_181
*1396 FILLER_0_3_193
*1397 FILLER_0_3_205
*1398 FILLER_0_3_217
*1399 FILLER_0_3_223
*1400 FILLER_0_3_225
*1401 FILLER_0_3_237
*1402 FILLER_0_3_249
*1403 FILLER_0_3_261
*1404 FILLER_0_3_27
*1405 FILLER_0_3_273
*1406 FILLER_0_3_279
*1407 FILLER_0_3_281
*1408 FILLER_0_3_293
*1409 FILLER_0_3_3
*1410 FILLER_0_3_305
*1411 FILLER_0_3_317
*1412 FILLER_0_3_329
*1413 FILLER_0_3_39
*1414 FILLER_0_3_51
*1415 FILLER_0_3_55
*1416 FILLER_0_3_57
*1417 FILLER_0_3_69
*1418 FILLER_0_3_81
*1419 FILLER_0_3_93
*1420 FILLER_0_4_109
*1421 FILLER_0_4_121
*1422 FILLER_0_4_133
*1423 FILLER_0_4_139
*1424 FILLER_0_4_141
*1425 FILLER_0_4_15
*1426 FILLER_0_4_153
*1427 FILLER_0_4_165
*1428 FILLER_0_4_177
*1429 FILLER_0_4_189
*1430 FILLER_0_4_195
*1431 FILLER_0_4_197
*1432 FILLER_0_4_209
*1433 FILLER_0_4_221
*1434 FILLER_0_4_233
*1435 FILLER_0_4_245
*1436 FILLER_0_4_251
*1437 FILLER_0_4_253
*1438 FILLER_0_4_265
*1439 FILLER_0_4_27
*1440 FILLER_0_4_277
*1441 FILLER_0_4_289
*1442 FILLER_0_4_29
*1443 FILLER_0_4_3
*1444 FILLER_0_4_301
*1445 FILLER_0_4_307
*1446 FILLER_0_4_309
*1447 FILLER_0_4_321
*1448 FILLER_0_4_333
*1449 FILLER_0_4_41
*1450 FILLER_0_4_53
*1451 FILLER_0_4_65
*1452 FILLER_0_4_77
*1453 FILLER_0_4_83
*1454 FILLER_0_4_85
*1455 FILLER_0_4_97
*1456 FILLER_0_5_105
*1457 FILLER_0_5_111
*1458 FILLER_0_5_113
*1459 FILLER_0_5_125
*1460 FILLER_0_5_137
*1461 FILLER_0_5_149
*1462 FILLER_0_5_15
*1463 FILLER_0_5_161
*1464 FILLER_0_5_167
*1465 FILLER_0_5_169
*1466 FILLER_0_5_181
*1467 FILLER_0_5_193
*1468 FILLER_0_5_205
*1469 FILLER_0_5_217
*1470 FILLER_0_5_223
*1471 FILLER_0_5_225
*1472 FILLER_0_5_237
*1473 FILLER_0_5_249
*1474 FILLER_0_5_261
*1475 FILLER_0_5_27
*1476 FILLER_0_5_273
*1477 FILLER_0_5_279
*1478 FILLER_0_5_281
*1479 FILLER_0_5_293
*1480 FILLER_0_5_3
*1481 FILLER_0_5_305
*1482 FILLER_0_5_317
*1483 FILLER_0_5_329
*1484 FILLER_0_5_39
*1485 FILLER_0_5_51
*1486 FILLER_0_5_55
*1487 FILLER_0_5_57
*1488 FILLER_0_5_69
*1489 FILLER_0_5_81
*1490 FILLER_0_5_93
*1491 FILLER_0_6_109
*1492 FILLER_0_6_121
*1493 FILLER_0_6_133
*1494 FILLER_0_6_139
*1495 FILLER_0_6_141
*1496 FILLER_0_6_15
*1497 FILLER_0_6_153
*1498 FILLER_0_6_165
*1499 FILLER_0_6_177
*1500 FILLER_0_6_189
*1501 FILLER_0_6_195
*1502 FILLER_0_6_197
*1503 FILLER_0_6_209
*1504 FILLER_0_6_221
*1505 FILLER_0_6_233
*1506 FILLER_0_6_245
*1507 FILLER_0_6_251
*1508 FILLER_0_6_253
*1509 FILLER_0_6_265
*1510 FILLER_0_6_27
*1511 FILLER_0_6_277
*1512 FILLER_0_6_289
*1513 FILLER_0_6_29
*1514 FILLER_0_6_3
*1515 FILLER_0_6_301
*1516 FILLER_0_6_307
*1517 FILLER_0_6_309
*1518 FILLER_0_6_321
*1519 FILLER_0_6_333
*1520 FILLER_0_6_41
*1521 FILLER_0_6_53
*1522 FILLER_0_6_65
*1523 FILLER_0_6_77
*1524 FILLER_0_6_83
*1525 FILLER_0_6_85
*1526 FILLER_0_6_97
*1527 FILLER_0_7_105
*1528 FILLER_0_7_111
*1529 FILLER_0_7_113
*1530 FILLER_0_7_125
*1531 FILLER_0_7_137
*1532 FILLER_0_7_149
*1533 FILLER_0_7_15
*1534 FILLER_0_7_161
*1535 FILLER_0_7_167
*1536 FILLER_0_7_169
*1537 FILLER_0_7_181
*1538 FILLER_0_7_193
*1539 FILLER_0_7_205
*1540 FILLER_0_7_217
*1541 FILLER_0_7_223
*1542 FILLER_0_7_225
*1543 FILLER_0_7_237
*1544 FILLER_0_7_249
*1545 FILLER_0_7_261
*1546 FILLER_0_7_27
*1547 FILLER_0_7_273
*1548 FILLER_0_7_279
*1549 FILLER_0_7_281
*1550 FILLER_0_7_293
*1551 FILLER_0_7_3
*1552 FILLER_0_7_305
*1553 FILLER_0_7_317
*1554 FILLER_0_7_329
*1555 FILLER_0_7_39
*1556 FILLER_0_7_51
*1557 FILLER_0_7_55
*1558 FILLER_0_7_57
*1559 FILLER_0_7_69
*1560 FILLER_0_7_81
*1561 FILLER_0_7_93
*1562 FILLER_0_8_109
*1563 FILLER_0_8_121
*1564 FILLER_0_8_133
*1565 FILLER_0_8_139
*1566 FILLER_0_8_141
*1567 FILLER_0_8_15
*1568 FILLER_0_8_153
*1569 FILLER_0_8_165
*1570 FILLER_0_8_177
*1571 FILLER_0_8_189
*1572 FILLER_0_8_195
*1573 FILLER_0_8_197
*1574 FILLER_0_8_209
*1575 FILLER_0_8_221
*1576 FILLER_0_8_233
*1577 FILLER_0_8_245
*1578 FILLER_0_8_251
*1579 FILLER_0_8_253
*1580 FILLER_0_8_265