*SPEF "ieee 1481-1999"
*DESIGN "tt_um_haeuslermarkus_fir_filter"
*DATE "14:18:30 Wednesday April 10, 2024"
*VENDOR "The OpenROAD Project"
*PROGRAM "OpenROAD"
*VERSION "0889970d1790a2617e69f253221b8bd7626e51dc"
*DESIGN_FLOW "NAME_SCOPE LOCAL" "PIN_CAP NONE"
*DIVIDER /
*DELIMITER :
*BUS_DELIMITER []
*T_UNIT 1 NS
*C_UNIT 1 PF
*R_UNIT 1 OHM
*L_UNIT 1 HENRY

*NAME_MAP
*3 clk
*4 ena
*5 rst_n
*6 ui_in[0]
*7 ui_in[1]
*8 ui_in[2]
*9 ui_in[3]
*10 ui_in[4]
*11 ui_in[5]
*12 ui_in[6]
*13 ui_in[7]
*14 uio_in[0]
*15 uio_in[1]
*16 uio_in[2]
*17 uio_in[3]
*18 uio_in[4]
*19 uio_in[5]
*20 uio_in[6]
*21 uio_in[7]
*22 net20
*23 net21
*24 net22
*25 net23
*26 net24
*27 net25
*28 net13
*29 net14
*30 uio_out[0]
*31 uio_out[1]
*32 uio_out[2]
*33 net15
*34 net16
*35 net17
*36 net18
*37 net19
*38 uo_out[0]
*39 uo_out[1]
*40 uo_out[2]
*41 uo_out[3]
*42 uo_out[4]
*43 uo_out[5]
*44 uo_out[6]
*45 uo_out[7]
*46 _0000_
*47 _0001_
*48 _0002_
*49 _0003_
*50 _0004_
*51 _0005_
*52 _0006_
*53 _0007_
*54 _0008_
*55 _0009_
*56 _0010_
*57 _0011_
*58 _0012_
*59 _0013_
*60 _0014_
*61 _0015_
*62 _0016_
*63 _0017_
*64 _0018_
*65 _0019_
*66 _0020_
*67 _0021_
*68 _0022_
*69 _0023_
*70 _0024_
*71 _0025_
*72 _0026_
*73 _0027_
*74 _0028_
*75 _0029_
*76 _0030_
*77 _0031_
*78 _0032_
*79 _0033_
*80 _0034_
*81 _0035_
*82 _0036_
*83 _0037_
*84 _0038_
*85 _0039_
*86 _0040_
*87 _0041_
*88 _0042_
*89 _0043_
*90 _0044_
*91 _0045_
*92 _0046_
*93 _0047_
*94 _0048_
*95 _0049_
*96 _0050_
*97 _0051_
*98 _0052_
*99 _0053_
*100 _0054_
*101 _0055_
*102 _0056_
*103 _0057_
*104 _0058_
*105 _0059_
*106 _0060_
*107 _0061_
*108 _0062_
*109 _0063_
*110 _0064_
*111 _0065_
*112 _0066_
*113 _0067_
*114 _0068_
*115 _0069_
*116 _0070_
*117 _0071_
*118 _0072_
*119 _0073_
*120 _0074_
*121 _0075_
*122 _0076_
*123 _0077_
*124 _0078_
*125 _0079_
*126 _0080_
*127 _0081_
*128 _0082_
*129 _0083_
*130 _0084_
*131 _0085_
*132 _0086_
*133 _0087_
*134 _0088_
*135 _0089_
*136 _0090_
*137 _0091_
*138 _0092_
*139 _0093_
*140 _0094_
*141 _0095_
*142 _0096_
*143 _0097_
*144 _0098_
*145 _0099_
*146 _0100_
*147 _0101_
*148 _0102_
*149 _0103_
*150 _0104_
*151 _0105_
*152 _0106_
*153 _0107_
*154 _0108_
*155 _0109_
*156 _0110_
*157 _0111_
*158 _0112_
*159 _0113_
*160 _0114_
*161 _0115_
*162 _0116_
*163 _0117_
*164 _0118_
*165 _0119_
*166 _0120_
*167 _0121_
*168 _0122_
*169 _0123_
*170 _0124_
*171 _0125_
*172 _0126_
*173 _0127_
*174 _0128_
*175 _0129_
*176 _0130_
*177 _0131_
*178 _0132_
*179 _0133_
*180 _0134_
*181 _0135_
*182 _0136_
*183 _0137_
*184 _0138_
*185 _0139_
*186 _0140_
*187 _0141_
*188 _0142_
*189 _0143_
*190 _0144_
*191 _0145_
*192 _0146_
*193 _0147_
*194 _0148_
*195 _0149_
*196 _0150_
*197 _0151_
*198 _0152_
*199 _0153_
*200 _0154_
*201 _0155_
*202 _0156_
*203 _0157_
*204 _0158_
*205 _0159_
*206 _0160_
*207 _0161_
*208 _0162_
*209 _0163_
*210 _0164_
*211 _0165_
*212 _0166_
*213 _0167_
*214 _0168_
*215 _0169_
*216 _0170_
*217 _0171_
*218 _0172_
*219 _0173_
*220 _0174_
*221 _0175_
*222 _0176_
*223 _0177_
*224 _0178_
*225 _0179_
*226 _0180_
*227 _0181_
*228 _0182_
*229 _0183_
*230 _0184_
*231 _0185_
*232 _0186_
*233 _0187_
*234 _0188_
*235 _0189_
*236 _0190_
*237 _0191_
*238 _0192_
*239 _0193_
*240 _0194_
*241 _0195_
*242 _0196_
*243 _0197_
*244 _0198_
*245 _0199_
*246 _0200_
*247 _0201_
*248 _0202_
*249 _0203_
*250 _0204_
*251 _0205_
*252 _0206_
*253 _0207_
*254 _0208_
*255 _0209_
*256 _0210_
*257 _0211_
*258 _0212_
*259 _0213_
*260 _0214_
*261 _0215_
*262 _0216_
*263 _0217_
*264 _0218_
*265 _0219_
*266 _0220_
*267 _0221_
*268 _0222_
*269 _0223_
*270 _0224_
*271 _0225_
*272 _0226_
*273 _0227_
*274 _0228_
*275 _0229_
*276 _0230_
*277 _0231_
*278 _0232_
*279 _0233_
*280 _0234_
*281 _0235_
*282 _0236_
*283 _0237_
*284 _0238_
*285 _0239_
*286 _0240_
*287 _0241_
*288 _0242_
*289 _0243_
*290 _0244_
*291 _0245_
*292 _0246_
*293 _0247_
*294 _0248_
*295 _0249_
*296 _0250_
*297 _0251_
*298 _0252_
*299 _0253_
*300 _0254_
*301 _0255_
*302 _0256_
*303 _0257_
*304 _0258_
*305 _0259_
*306 _0260_
*307 _0261_
*308 _0262_
*309 _0263_
*310 _0264_
*311 _0265_
*312 _0266_
*313 _0267_
*314 _0268_
*315 _0269_
*316 _0270_
*317 _0271_
*318 _0272_
*319 _0273_
*320 _0274_
*321 _0275_
*322 _0276_
*323 _0277_
*324 _0278_
*325 _0279_
*326 _0280_
*327 _0281_
*328 _0282_
*329 _0283_
*330 _0284_
*331 _0285_
*332 _0286_
*333 _0287_
*334 _0288_
*335 _0289_
*336 _0290_
*337 _0291_
*338 _0292_
*339 _0293_
*340 _0294_
*341 _0295_
*342 _0296_
*343 _0297_
*344 _0298_
*345 _0299_
*346 _0300_
*347 _0301_
*348 _0302_
*349 _0303_
*350 _0304_
*351 _0305_
*352 _0306_
*353 _0307_
*354 _0308_
*355 _0309_
*356 _0310_
*357 _0311_
*358 _0312_
*359 _0313_
*360 _0314_
*361 _0315_
*362 _0316_
*363 _0317_
*364 _0318_
*365 _0319_
*366 _0320_
*367 _0321_
*368 _0322_
*369 _0323_
*370 _0324_
*371 _0325_
*372 _0326_
*373 _0327_
*374 _0328_
*375 _0329_
*376 _0330_
*377 _0331_
*378 _0332_
*379 _0333_
*380 _0334_
*381 _0335_
*382 _0336_
*383 _0337_
*384 _0338_
*385 _0339_
*386 _0340_
*387 _0341_
*388 _0342_
*389 _0343_
*390 _0344_
*391 _0345_
*392 _0346_
*393 _0347_
*394 _0348_
*395 _0349_
*396 _0350_
*397 _0351_
*398 _0352_
*399 _0353_
*400 _0354_
*401 _0355_
*402 _0356_
*403 _0357_
*404 _0358_
*405 _0359_
*406 _0360_
*407 _0361_
*408 _0362_
*409 _0363_
*410 _0364_
*411 _0365_
*412 _0366_
*413 _0367_
*414 _0368_
*415 _0369_
*416 _0370_
*417 _0371_
*418 _0372_
*419 _0373_
*420 _0374_
*421 _0375_
*422 _0376_
*423 _0377_
*424 _0378_
*425 _0379_
*426 _0380_
*427 _0381_
*428 _0382_
*429 _0383_
*430 _0384_
*431 _0385_
*432 _0386_
*433 _0387_
*434 _0388_
*435 _0389_
*436 _0390_
*437 _0391_
*438 _0392_
*439 _0393_
*440 _0394_
*441 _0395_
*442 _0396_
*443 _0397_
*444 _0398_
*445 _0399_
*446 _0400_
*447 _0401_
*448 _0402_
*449 _0403_
*450 _0404_
*451 _0405_
*452 _0406_
*453 _0407_
*454 _0408_
*455 _0409_
*456 _0410_
*457 _0411_
*458 _0412_
*459 _0413_
*460 _0414_
*461 _0415_
*462 _0416_
*463 _0417_
*464 _0418_
*465 _0419_
*466 _0420_
*467 _0421_
*468 _0422_
*469 _0423_
*470 _0424_
*471 _0425_
*472 _0426_
*473 _0427_
*474 _0428_
*475 _0429_
*476 _0430_
*477 _0431_
*478 _0432_
*479 _0433_
*480 _0434_
*481 _0435_
*482 _0436_
*483 _0437_
*484 _0438_
*485 _0439_
*486 _0440_
*487 _0441_
*488 _0442_
*489 _0443_
*490 _0444_
*491 _0445_
*492 _0446_
*493 _0447_
*494 _0448_
*495 _0449_
*496 _0450_
*497 _0451_
*498 _0452_
*499 _0453_
*500 _0454_
*501 _0455_
*502 _0456_
*503 _0457_
*504 _0458_
*505 _0459_
*506 _0460_
*507 _0461_
*508 _0462_
*509 _0463_
*510 _0464_
*511 _0465_
*512 _0466_
*513 _0467_
*514 _0468_
*515 _0469_
*516 _0470_
*517 _0471_
*518 _0472_
*519 _0473_
*520 _0474_
*521 _0475_
*522 _0476_
*523 _0477_
*524 _0478_
*525 _0479_
*526 _0480_
*527 _0481_
*528 _0482_
*529 _0483_
*530 _0484_
*531 _0485_
*532 _0486_
*533 _0487_
*534 _0488_
*535 _0489_
*536 _0490_
*537 _0491_
*538 _0492_
*539 _0493_
*540 _0494_
*541 _0495_
*542 _0496_
*543 _0497_
*544 _0498_
*545 _0499_
*546 _0500_
*547 _0501_
*548 _0502_
*549 _0503_
*550 _0504_
*551 _0505_
*552 _0506_
*553 _0507_
*554 _0508_
*555 _0509_
*556 _0510_
*557 _0511_
*558 _0512_
*559 _0513_
*560 _0514_
*561 _0515_
*562 _0516_
*563 _0517_
*564 _0518_
*565 _0519_
*566 _0520_
*567 _0521_
*568 _0522_
*569 _0523_
*570 _0524_
*571 _0525_
*572 _0526_
*573 _0527_
*574 _0528_
*575 _0529_
*576 _0530_
*577 _0531_
*578 _0532_
*579 _0533_
*580 _0534_
*581 _0535_
*582 _0536_
*583 _0537_
*584 _0538_
*585 _0539_
*586 _0540_
*587 _0541_
*588 _0542_
*589 _0543_
*590 _0544_
*591 _0545_
*592 _0546_
*593 _0547_
*594 _0548_
*595 _0549_
*596 _0550_
*597 _0551_
*598 _0552_
*599 _0553_
*600 _0554_
*601 _0555_
*602 _0556_
*603 _0557_
*604 _0558_
*605 _0559_
*606 _0560_
*607 _0561_
*608 _0562_
*609 _0563_
*610 _0564_
*611 _0565_
*612 _0566_
*613 _0567_
*614 _0568_
*615 _0569_
*616 _0570_
*617 _0571_
*618 _0572_
*619 _0573_
*620 _0574_
*621 _0575_
*622 _0576_
*623 _0577_
*624 _0578_
*625 _0579_
*626 _0580_
*627 _0581_
*628 _0582_
*629 _0583_
*630 _0584_
*631 _0585_
*632 _0586_
*633 _0587_
*634 _0588_
*635 _0589_
*636 _0590_
*637 _0591_
*638 _0592_
*639 _0593_
*640 _0594_
*641 _0595_
*642 _0596_
*643 _0597_
*644 _0598_
*645 _0599_
*646 _0600_
*647 _0601_
*648 _0602_
*649 _0603_
*650 _0604_
*651 _0605_
*652 _0606_
*653 _0607_
*654 _0608_
*655 _0609_
*656 _0610_
*657 _0611_
*658 _0612_
*659 _0613_
*660 _0614_
*661 _0615_
*662 _0616_
*663 _0617_
*664 _0618_
*665 _0619_
*666 _0620_
*667 _0621_
*668 _0622_
*669 _0623_
*670 _0624_
*671 _0625_
*672 _0626_
*673 _0627_
*674 _0628_
*675 _0629_
*676 _0630_
*677 _0631_
*678 _0632_
*679 _0633_
*680 _0634_
*681 _0635_
*682 _0636_
*683 _0637_
*684 _0638_
*685 _0639_
*686 _0640_
*687 _0641_
*688 _0642_
*689 _0643_
*690 _0644_
*691 _0645_
*692 _0646_
*693 _0647_
*694 _0648_
*695 _0649_
*696 _0650_
*697 _0651_
*698 _0652_
*699 _0653_
*700 _0654_
*701 _0655_
*702 _0656_
*703 _0657_
*704 _0658_
*705 clknet_0_clk
*706 clknet_3_0__leaf_clk
*707 clknet_3_1__leaf_clk
*708 clknet_3_2__leaf_clk
*709 clknet_3_3__leaf_clk
*710 clknet_3_4__leaf_clk
*711 clknet_3_5__leaf_clk
*712 clknet_3_6__leaf_clk
*713 clknet_3_7__leaf_clk
*714 fir_main_instance\.buffs\[0\]\[0\]
*715 fir_main_instance\.buffs\[0\]\[1\]
*716 fir_main_instance\.buffs\[0\]\[2\]
*717 fir_main_instance\.buffs\[0\]\[3\]
*718 fir_main_instance\.buffs\[0\]\[4\]
*719 fir_main_instance\.buffs\[0\]\[5\]
*720 fir_main_instance\.buffs\[0\]\[6\]
*721 fir_main_instance\.buffs\[0\]\[7\]
*722 fir_main_instance\.buffs\[1\]\[0\]
*723 fir_main_instance\.buffs\[1\]\[1\]
*724 fir_main_instance\.buffs\[1\]\[2\]
*725 fir_main_instance\.buffs\[1\]\[3\]
*726 fir_main_instance\.buffs\[1\]\[4\]
*727 fir_main_instance\.buffs\[1\]\[5\]
*728 fir_main_instance\.buffs\[1\]\[6\]
*729 fir_main_instance\.buffs\[1\]\[7\]
*730 fir_main_instance\.buffs\[2\]\[0\]
*731 fir_main_instance\.buffs\[2\]\[1\]
*732 fir_main_instance\.buffs\[2\]\[2\]
*733 fir_main_instance\.buffs\[2\]\[3\]
*734 fir_main_instance\.buffs\[2\]\[4\]
*735 fir_main_instance\.buffs\[2\]\[5\]
*736 fir_main_instance\.buffs\[2\]\[6\]
*737 fir_main_instance\.buffs\[2\]\[7\]
*738 fir_main_instance\.buffs\[3\]\[0\]
*739 fir_main_instance\.buffs\[3\]\[1\]
*740 fir_main_instance\.buffs\[3\]\[2\]
*741 fir_main_instance\.buffs\[3\]\[3\]
*742 fir_main_instance\.buffs\[3\]\[4\]
*743 fir_main_instance\.buffs\[3\]\[5\]
*744 fir_main_instance\.buffs\[3\]\[6\]
*745 fir_main_instance\.buffs\[3\]\[7\]
*746 fir_main_instance\.buffs\[4\]\[0\]
*747 fir_main_instance\.buffs\[4\]\[1\]
*748 fir_main_instance\.buffs\[4\]\[2\]
*749 fir_main_instance\.buffs\[4\]\[3\]
*750 fir_main_instance\.buffs\[4\]\[4\]
*751 fir_main_instance\.buffs\[4\]\[5\]
*752 fir_main_instance\.buffs\[4\]\[6\]
*753 fir_main_instance\.buffs\[4\]\[7\]
*754 fir_main_instance\.buffs\[5\]\[0\]
*755 fir_main_instance\.buffs\[5\]\[1\]
*756 fir_main_instance\.buffs\[5\]\[2\]
*757 fir_main_instance\.buffs\[5\]\[3\]
*758 fir_main_instance\.buffs\[5\]\[4\]
*759 fir_main_instance\.buffs\[5\]\[5\]
*760 fir_main_instance\.buffs\[5\]\[6\]
*761 fir_main_instance\.buffs\[5\]\[7\]
*762 fir_main_instance\.cnt_buff\[0\]
*763 fir_main_instance\.cnt_buff\[1\]
*764 fir_main_instance\.cnt_buff\[2\]
*765 fir_main_instance\.cnt_setup\[0\]
*766 fir_main_instance\.cnt_setup\[1\]
*767 fir_main_instance\.cnt_tap\[0\]
*768 fir_main_instance\.cnt_tap\[1\]
*769 fir_main_instance\.state\[0\]
*770 fir_main_instance\.state\[1\]
*771 fir_main_instance\.state\[2\]
*772 fir_main_instance\.state\[3\]
*773 fir_main_instance\.state\[4\]
*774 fir_main_instance\.state\[5\]
*775 fir_main_instance\.taps\[0\]\[0\]
*776 fir_main_instance\.taps\[0\]\[1\]
*777 fir_main_instance\.taps\[0\]\[2\]
*778 fir_main_instance\.taps\[1\]\[0\]
*779 fir_main_instance\.taps\[1\]\[1\]
*780 fir_main_instance\.taps\[1\]\[2\]
*781 fir_main_instance\.taps\[2\]\[0\]
*782 fir_main_instance\.taps\[2\]\[1\]
*783 fir_main_instance\.taps\[2\]\[2\]
*784 fir_main_instance\.y_n\[0\]
*785 fir_main_instance\.y_n\[10\]
*786 fir_main_instance\.y_n\[1\]
*787 fir_main_instance\.y_n\[2\]
*788 fir_main_instance\.y_n\[3\]
*789 fir_main_instance\.y_n\[4\]
*790 fir_main_instance\.y_n\[5\]
*791 fir_main_instance\.y_n\[6\]
*792 fir_main_instance\.y_n\[7\]
*793 fir_main_instance\.y_n\[8\]
*794 fir_main_instance\.y_n\[9\]
*795 net1
*796 net10
*797 net11
*798 net12
*799 net2
*800 net26
*801 net27
*802 net28
*803 net29
*804 net3
*805 net30
*806 net31
*807 net32
*808 net33
*809 net34
*810 net35
*811 net36
*812 net37
*813 net38
*814 net39
*815 net4
*816 net40
*817 net41
*818 net42
*819 net43
*820 net44
*821 net45
*822 net46
*823 net47
*824 net48
*825 net49
*826 net5
*827 net50
*828 net51
*829 net52
*830 net53
*831 net54
*832 net55
*833 net56
*834 net57
*835 net58
*836 net59
*837 net6
*838 net60
*839 net61
*840 net62
*841 net63
*842 net64
*843 net65
*844 net66
*845 net67
*846 net68
*847 net69
*848 net7
*849 net70
*850 net71
*851 net72
*852 net73
*853 net74
*854 net75
*855 net8
*856 net9
*857 FILLER_0_0_109
*858 FILLER_0_0_113
*859 FILLER_0_0_125
*860 FILLER_0_0_137
*861 FILLER_0_0_141
*862 FILLER_0_0_15
*863 FILLER_0_0_153
*864 FILLER_0_0_165
*865 FILLER_0_0_169
*866 FILLER_0_0_181
*867 FILLER_0_0_193
*868 FILLER_0_0_197
*869 FILLER_0_0_209
*870 FILLER_0_0_221
*871 FILLER_0_0_225
*872 FILLER_0_0_237
*873 FILLER_0_0_249
*874 FILLER_0_0_253
*875 FILLER_0_0_265
*876 FILLER_0_0_27
*877 FILLER_0_0_277
*878 FILLER_0_0_281
*879 FILLER_0_0_29
*880 FILLER_0_0_293
*881 FILLER_0_0_3
*882 FILLER_0_0_305
*883 FILLER_0_0_309
*884 FILLER_0_0_321
*885 FILLER_0_0_333
*886 FILLER_0_0_41
*887 FILLER_0_0_53
*888 FILLER_0_0_57
*889 FILLER_0_0_69
*890 FILLER_0_0_81
*891 FILLER_0_0_85
*892 FILLER_0_0_97
*893 FILLER_0_10_121
*894 FILLER_0_10_133
*895 FILLER_0_10_15
*896 FILLER_0_10_166
*897 FILLER_0_10_193
*898 FILLER_0_10_204
*899 FILLER_0_10_216
*900 FILLER_0_10_237
*901 FILLER_0_10_24
*902 FILLER_0_10_249
*903 FILLER_0_10_253
*904 FILLER_0_10_257
*905 FILLER_0_10_264
*906 FILLER_0_10_281
*907 FILLER_0_10_29
*908 FILLER_0_10_3
*909 FILLER_0_10_331
*910 FILLER_0_10_36
*911 FILLER_0_10_48
*912 FILLER_0_10_64
*913 FILLER_0_10_73
*914 FILLER_0_10_77
*915 FILLER_0_10_83
*916 FILLER_0_10_89
*917 FILLER_0_10_97
*918 FILLER_0_11_11
*919 FILLER_0_11_125
*920 FILLER_0_11_137
*921 FILLER_0_11_145
*922 FILLER_0_11_151
*923 FILLER_0_11_163
*924 FILLER_0_11_167
*925 FILLER_0_11_169
*926 FILLER_0_11_213
*927 FILLER_0_11_249
*928 FILLER_0_11_25
*929 FILLER_0_11_253
*930 FILLER_0_11_276
*931 FILLER_0_11_3
*932 FILLER_0_11_313
*933 FILLER_0_11_331
*934 FILLER_0_11_37
*935 FILLER_0_11_49
*936 FILLER_0_11_55
*937 FILLER_0_11_57
*938 FILLER_0_11_67
*939 FILLER_0_11_82
*940 FILLER_0_11_94
*941 FILLER_0_11_98
*942 FILLER_0_12_113
*943 FILLER_0_12_122
*944 FILLER_0_12_134
*945 FILLER_0_12_141
*946 FILLER_0_12_153
*947 FILLER_0_12_165
*948 FILLER_0_12_173
*949 FILLER_0_12_192
*950 FILLER_0_12_208
*951 FILLER_0_12_244
*952 FILLER_0_12_253
*953 FILLER_0_12_257
*954 FILLER_0_12_27
*955 FILLER_0_12_3
*956 FILLER_0_12_317
*957 FILLER_0_12_321
*958 FILLER_0_12_330
*959 FILLER_0_12_334
*960 FILLER_0_12_34
*961 FILLER_0_12_46
*962 FILLER_0_12_59
*963 FILLER_0_12_66
*964 FILLER_0_12_7
*965 FILLER_0_12_78
*966 FILLER_0_12_85
*967 FILLER_0_12_97
*968 FILLER_0_13_108
*969 FILLER_0_13_113
*970 FILLER_0_13_122
*971 FILLER_0_13_134
*972 FILLER_0_13_158
*973 FILLER_0_13_166
*974 FILLER_0_13_169
*975 FILLER_0_13_178
*976 FILLER_0_13_204
*977 FILLER_0_13_216
*978 FILLER_0_13_247
*979 FILLER_0_13_277
*980 FILLER_0_13_28
*981 FILLER_0_13_3
*982 FILLER_0_13_331
*983 FILLER_0_13_36
*984 FILLER_0_13_44
*985 FILLER_0_13_81
*986 FILLER_0_13_93
*987 FILLER_0_13_97
*988 FILLER_0_14_120
*989 FILLER_0_14_129
*990 FILLER_0_14_141
*991 FILLER_0_14_15
*992 FILLER_0_14_172
*993 FILLER_0_14_183
*994 FILLER_0_14_195
*995 FILLER_0_14_201
*996 FILLER_0_14_213
*997 FILLER_0_14_221
*998 FILLER_0_14_244
*999 FILLER_0_14_253
*1000 FILLER_0_14_26
*1001 FILLER_0_14_272
*1002 FILLER_0_14_284
*1003 FILLER_0_14_294
*1004 FILLER_0_14_298
*1005 FILLER_0_14_3
*1006 FILLER_0_14_305
*1007 FILLER_0_14_325
*1008 FILLER_0_14_334
*1009 FILLER_0_14_36
*1010 FILLER_0_14_48
*1011 FILLER_0_14_61
*1012 FILLER_0_14_68
*1013 FILLER_0_14_80
*1014 FILLER_0_14_85
*1015 FILLER_0_14_97
*1016 FILLER_0_15_101
*1017 FILLER_0_15_108
*1018 FILLER_0_15_119
*1019 FILLER_0_15_129
*1020 FILLER_0_15_15
*1021 FILLER_0_15_160
*1022 FILLER_0_15_169
*1023 FILLER_0_15_181
*1024 FILLER_0_15_20
*1025 FILLER_0_15_204
*1026 FILLER_0_15_212
*1027 FILLER_0_15_223
*1028 FILLER_0_15_240
*1029 FILLER_0_15_27
*1030 FILLER_0_15_279
*1031 FILLER_0_15_281
*1032 FILLER_0_15_289
*1033 FILLER_0_15_3
*1034 FILLER_0_15_312
*1035 FILLER_0_15_331
*1036 FILLER_0_15_39
*1037 FILLER_0_15_51
*1038 FILLER_0_15_55
*1039 FILLER_0_15_57
*1040 FILLER_0_15_70
*1041 FILLER_0_15_83
*1042 FILLER_0_15_89
*1043 FILLER_0_15_94
*1044 FILLER_0_16_106
*1045 FILLER_0_16_11
*1046 FILLER_0_16_118
*1047 FILLER_0_16_130
*1048 FILLER_0_16_138
*1049 FILLER_0_16_141
*1050 FILLER_0_16_154
*1051 FILLER_0_16_167
*1052 FILLER_0_16_175
*1053 FILLER_0_16_194
*1054 FILLER_0_16_241
*1055 FILLER_0_16_249
*1056 FILLER_0_16_26
*1057 FILLER_0_16_283
*1058 FILLER_0_16_289
*1059 FILLER_0_16_3
*1060 FILLER_0_16_306
*1061 FILLER_0_16_325
*1062 FILLER_0_16_333
*1063 FILLER_0_16_35
*1064 FILLER_0_16_47
*1065 FILLER_0_16_55
*1066 FILLER_0_16_72
*1067 FILLER_0_16_85
*1068 FILLER_0_16_94
*1069 FILLER_0_17_105
*1070 FILLER_0_17_121
*1071 FILLER_0_17_131
*1072 FILLER_0_17_143
*1073 FILLER_0_17_15
*1074 FILLER_0_17_155
*1075 FILLER_0_17_167
*1076 FILLER_0_17_169
*1077 FILLER_0_17_209
*1078 FILLER_0_17_240
*1079 FILLER_0_17_28
*1080 FILLER_0_17_281
*1081 FILLER_0_17_289
*1082 FILLER_0_17_3
*1083 FILLER_0_17_306
*1084 FILLER_0_17_310
*1085 FILLER_0_17_35
*1086 FILLER_0_17_53
*1087 FILLER_0_17_57
*1088 FILLER_0_17_63
*1089 FILLER_0_17_69
*1090 FILLER_0_17_73
*1091 FILLER_0_17_85
*1092 FILLER_0_17_97
*1093 FILLER_0_18_11
*1094 FILLER_0_18_113
*1095 FILLER_0_18_123
*1096 FILLER_0_18_129
*1097 FILLER_0_18_138
*1098 FILLER_0_18_141
*1099 FILLER_0_18_145
*1100 FILLER_0_18_149
*1101 FILLER_0_18_161
*1102 FILLER_0_18_180
*1103 FILLER_0_18_20
*1104 FILLER_0_18_220
*1105 FILLER_0_18_235
*1106 FILLER_0_18_247
*1107 FILLER_0_18_251
*1108 FILLER_0_18_253
*1109 FILLER_0_18_257
*1110 FILLER_0_18_278
*1111 FILLER_0_18_29
*1112 FILLER_0_18_290
*1113 FILLER_0_18_294
*1114 FILLER_0_18_3
*1115 FILLER_0_18_307
*1116 FILLER_0_18_333
*1117 FILLER_0_18_41
*1118 FILLER_0_18_53
*1119 FILLER_0_18_69
*1120 FILLER_0_18_80
*1121 FILLER_0_18_85
*1122 FILLER_0_18_97
*1123 FILLER_0_19_101
*1124 FILLER_0_19_109
*1125 FILLER_0_19_113
*1126 FILLER_0_19_127
*1127 FILLER_0_19_135
*1128 FILLER_0_19_158
*1129 FILLER_0_19_166
*1130 FILLER_0_19_169
*1131 FILLER_0_19_177
*1132 FILLER_0_19_200
*1133 FILLER_0_19_206
*1134 FILLER_0_19_21
*1135 FILLER_0_19_215
*1136 FILLER_0_19_231
*1137 FILLER_0_19_243
*1138 FILLER_0_19_25
*1139 FILLER_0_19_273
*1140 FILLER_0_19_279
*1141 FILLER_0_19_287
*1142 FILLER_0_19_3
*1143 FILLER_0_19_301
*1144 FILLER_0_19_310
*1145 FILLER_0_19_314
*1146 FILLER_0_19_331
*1147 FILLER_0_19_39
*1148 FILLER_0_19_51
*1149 FILLER_0_19_55
*1150 FILLER_0_19_57
*1151 FILLER_0_19_7
*1152 FILLER_0_19_70
*1153 FILLER_0_19_82
*1154 FILLER_0_1_105
*1155 FILLER_0_1_111
*1156 FILLER_0_1_113
*1157 FILLER_0_1_125
*1158 FILLER_0_1_137
*1159 FILLER_0_1_149
*1160 FILLER_0_1_15
*1161 FILLER_0_1_161
*1162 FILLER_0_1_167
*1163 FILLER_0_1_169
*1164 FILLER_0_1_181
*1165 FILLER_0_1_193
*1166 FILLER_0_1_205
*1167 FILLER_0_1_217
*1168 FILLER_0_1_223
*1169 FILLER_0_1_225
*1170 FILLER_0_1_237
*1171 FILLER_0_1_249
*1172 FILLER_0_1_261
*1173 FILLER_0_1_27
*1174 FILLER_0_1_273
*1175 FILLER_0_1_279
*1176 FILLER_0_1_281
*1177 FILLER_0_1_293
*1178 FILLER_0_1_3
*1179 FILLER_0_1_305
*1180 FILLER_0_1_317
*1181 FILLER_0_1_329
*1182 FILLER_0_1_39
*1183 FILLER_0_1_51
*1184 FILLER_0_1_55
*1185 FILLER_0_1_57
*1186 FILLER_0_1_69
*1187 FILLER_0_1_81
*1188 FILLER_0_1_93
*1189 FILLER_0_20_105
*1190 FILLER_0_20_123
*1191 FILLER_0_20_15
*1192 FILLER_0_20_152
*1193 FILLER_0_20_164
*1194 FILLER_0_20_173
*1195 FILLER_0_20_194
*1196 FILLER_0_20_208
*1197 FILLER_0_20_231
*1198 FILLER_0_20_243
*1199 FILLER_0_20_251
*1200 FILLER_0_20_253
*1201 FILLER_0_20_3
*1202 FILLER_0_20_331
*1203 FILLER_0_20_41
*1204 FILLER_0_20_49
*1205 FILLER_0_20_64
*1206 FILLER_0_20_72
*1207 FILLER_0_20_77
*1208 FILLER_0_20_83
*1209 FILLER_0_20_85
*1210 FILLER_0_20_93
*1211 FILLER_0_21_103
*1212 FILLER_0_21_111
*1213 FILLER_0_21_119
*1214 FILLER_0_21_127
*1215 FILLER_0_21_134
*1216 FILLER_0_21_138
*1217 FILLER_0_21_147
*1218 FILLER_0_21_15
*1219 FILLER_0_21_165
*1220 FILLER_0_21_169
*1221 FILLER_0_21_204
*1222 FILLER_0_21_242
*1223 FILLER_0_21_248
*1224 FILLER_0_21_279
*1225 FILLER_0_21_281
*1226 FILLER_0_21_298
*1227 FILLER_0_21_3
*1228 FILLER_0_21_332
*1229 FILLER_0_21_37
*1230 FILLER_0_21_49
*1231 FILLER_0_21_55
*1232 FILLER_0_21_57
*1233 FILLER_0_21_65
*1234 FILLER_0_21_72
*1235 FILLER_0_21_80
*1236 FILLER_0_21_93
*1237 FILLER_0_22_101
*1238 FILLER_0_22_113
*1239 FILLER_0_22_125
*1240 FILLER_0_22_139
*1241 FILLER_0_22_141
*1242 FILLER_0_22_17
*1243 FILLER_0_22_192
*1244 FILLER_0_22_203
*1245 FILLER_0_22_211
*1246 FILLER_0_22_242
*1247 FILLER_0_22_25
*1248 FILLER_0_22_250
*1249 FILLER_0_22_29
*1250 FILLER_0_22_3
*1251 FILLER_0_22_309
*1252 FILLER_0_22_313
*1253 FILLER_0_22_322
*1254 FILLER_0_22_334
*1255 FILLER_0_22_41
*1256 FILLER_0_22_53
*1257 FILLER_0_22_81
*1258 FILLER_0_22_85
*1259 FILLER_0_22_93
*1260 FILLER_0_23_104
*1261 FILLER_0_23_113
*1262 FILLER_0_23_121
*1263 FILLER_0_23_133
*1264 FILLER_0_23_145
*1265 FILLER_0_23_153
*1266 FILLER_0_23_159
*1267 FILLER_0_23_167
*1268 FILLER_0_23_169
*1269 FILLER_0_23_181
*1270 FILLER_0_23_198
*1271 FILLER_0_23_206
*1272 FILLER_0_23_222
*1273 FILLER_0_23_240
*1274 FILLER_0_23_252
*1275 FILLER_0_23_279
*1276 FILLER_0_23_29
*1277 FILLER_0_23_3
*1278 FILLER_0_23_305
*1279 FILLER_0_23_317
*1280 FILLER_0_23_329
*1281 FILLER_0_23_49
*1282 FILLER_0_23_55
*1283 FILLER_0_23_57
*1284 FILLER_0_23_80
*1285 FILLER_0_23_92
*1286 FILLER_0_24_121
*1287 FILLER_0_24_133
*1288 FILLER_0_24_139
*1289 FILLER_0_24_141
*1290 FILLER_0_24_148
*1291 FILLER_0_24_172
*1292 FILLER_0_24_178
*1293 FILLER_0_24_18
*1294 FILLER_0_24_197
*1295 FILLER_0_24_244
*1296 FILLER_0_24_26
*1297 FILLER_0_24_29
*1298 FILLER_0_24_297
*1299 FILLER_0_24_3
*1300 FILLER_0_24_306
*1301 FILLER_0_24_326
*1302 FILLER_0_24_334
*1303 FILLER_0_24_37
*1304 FILLER_0_24_45
*1305 FILLER_0_24_57
*1306 FILLER_0_24_66
*1307 FILLER_0_24_77
*1308 FILLER_0_24_83
*1309 FILLER_0_24_85
*1310 FILLER_0_25_131
*1311 FILLER_0_25_140
*1312 FILLER_0_25_15
*1313 FILLER_0_25_152
*1314 FILLER_0_25_166
*1315 FILLER_0_25_169
*1316 FILLER_0_25_181
*1317 FILLER_0_25_190
*1318 FILLER_0_25_202
*1319 FILLER_0_25_223
*1320 FILLER_0_25_238
*1321 FILLER_0_25_244
*1322 FILLER_0_25_256
*1323 FILLER_0_25_27
*1324 FILLER_0_25_279
*1325 FILLER_0_25_289
*1326 FILLER_0_25_293
*1327 FILLER_0_25_3
*1328 FILLER_0_25_302
*1329 FILLER_0_25_306
*1330 FILLER_0_25_331
*1331 FILLER_0_25_35
*1332 FILLER_0_25_42
*1333 FILLER_0_25_54
*1334 FILLER_0_25_57
*1335 FILLER_0_25_69
*1336 FILLER_0_25_80
*1337 FILLER_0_25_88
*1338 FILLER_0_25_96
*1339 FILLER_0_26_105
*1340 FILLER_0_26_11
*1341 FILLER_0_26_117
*1342 FILLER_0_26_129
*1343 FILLER_0_26_137
*1344 FILLER_0_26_151
*1345 FILLER_0_26_159
*1346 FILLER_0_26_181
*1347 FILLER_0_26_193
*1348 FILLER_0_26_197
*1349 FILLER_0_26_209
*1350 FILLER_0_26_232
*1351 FILLER_0_26_244
*1352 FILLER_0_26_253
*1353 FILLER_0_26_284
*1354 FILLER_0_26_295
*1355 FILLER_0_26_299
*1356 FILLER_0_26_3
*1357 FILLER_0_26_309
*1358 FILLER_0_26_329
*1359 FILLER_0_26_45
*1360 FILLER_0_26_49
*1361 FILLER_0_26_58
*1362 FILLER_0_26_79
*1363 FILLER_0_26_83
*1364 FILLER_0_27_110
*1365 FILLER_0_27_113
*1366 FILLER_0_27_132
*1367 FILLER_0_27_160
*1368 FILLER_0_27_176
*1369 FILLER_0_27_202
*1370 FILLER_0_27_229
*1371 FILLER_0_27_248
*1372 FILLER_0_27_278
*1373 FILLER_0_27_285
*1374 FILLER_0_27_3
*1375 FILLER_0_27_328
*1376 FILLER_0_27_334
*1377 FILLER_0_27_35
*1378 FILLER_0_27_47
*1379 FILLER_0_27_54
*1380 FILLER_0_27_57
*1381 FILLER_0_27_69
*1382 FILLER_0_27_81
*1383 FILLER_0_27_93
*1384 FILLER_0_27_98
*1385 FILLER_0_28_107
*1386 FILLER_0_28_112
*1387 FILLER_0_28_119
*1388 FILLER_0_28_134
*1389 FILLER_0_28_141
*1390 FILLER_0_28_153
*1391 FILLER_0_28_160
*1392 FILLER_0_28_167
*1393 FILLER_0_28_174
*1394 FILLER_0_28_186
*1395 FILLER_0_28_194
*1396 FILLER_0_28_197
*1397 FILLER_0_28_201
*1398 FILLER_0_28_226
*1399 FILLER_0_28_234
*1400 FILLER_0_28_248
*1401 FILLER_0_28_253
*1402 FILLER_0_28_257
*1403 FILLER_0_28_27
*1404 FILLER_0_28_276
*1405 FILLER_0_28_3
*1406 FILLER_0_28_304
*1407 FILLER_0_28_315
*1408 FILLER_0_28_326
*1409 FILLER_0_28_334
*1410 FILLER_0_28_42
*1411 FILLER_0_28_54
*1412 FILLER_0_28_62
*1413 FILLER_0_28_74
*1414 FILLER_0_28_82
*1415 FILLER_0_28_85
*1416 FILLER_0_29_110
*1417 FILLER_0_29_117
*1418 FILLER_0_29_132
*1419 FILLER_0_29_144
*1420 FILLER_0_29_148
*1421 FILLER_0_29_15
*1422 FILLER_0_29_159
*1423 FILLER_0_29_165
*1424 FILLER_0_29_169
*1425 FILLER_0_29_189
*1426 FILLER_0_29_201
*1427 FILLER_0_29_212
*1428 FILLER_0_29_225
*1429 FILLER_0_29_229
*1430 FILLER_0_29_26
*1431 FILLER_0_29_268
*1432 FILLER_0_29_278
*1433 FILLER_0_29_281
*1434 FILLER_0_29_293
*1435 FILLER_0_29_297
*1436 FILLER_0_29_3
*1437 FILLER_0_29_30
*1438 FILLER_0_29_304
*1439 FILLER_0_29_312
*1440 FILLER_0_29_38
*1441 FILLER_0_29_50
*1442 FILLER_0_29_64
*1443 FILLER_0_29_68
*1444 FILLER_0_29_80
*1445 FILLER_0_29_88
*1446 FILLER_0_2_109
*1447 FILLER_0_2_121
*1448 FILLER_0_2_133
*1449 FILLER_0_2_139
*1450 FILLER_0_2_141
*1451 FILLER_0_2_15
*1452 FILLER_0_2_153
*1453 FILLER_0_2_165
*1454 FILLER_0_2_177
*1455 FILLER_0_2_189
*1456 FILLER_0_2_195
*1457 FILLER_0_2_197
*1458 FILLER_0_2_209
*1459 FILLER_0_2_221
*1460 FILLER_0_2_233
*1461 FILLER_0_2_245
*1462 FILLER_0_2_251
*1463 FILLER_0_2_253
*1464 FILLER_0_2_265
*1465 FILLER_0_2_27
*1466 FILLER_0_2_277
*1467 FILLER_0_2_289
*1468 FILLER_0_2_29
*1469 FILLER_0_2_3
*1470 FILLER_0_2_301
*1471 FILLER_0_2_307
*1472 FILLER_0_2_309
*1473 FILLER_0_2_321
*1474 FILLER_0_2_333
*1475 FILLER_0_2_41
*1476 FILLER_0_2_53
*1477 FILLER_0_2_65
*1478 FILLER_0_2_77
*1479 FILLER_0_2_83
*1480 FILLER_0_2_85
*1481 FILLER_0_2_97
*1482 FILLER_0_30_127
*1483 FILLER_0_30_139
*1484 FILLER_0_30_141
*1485 FILLER_0_30_153
*1486 FILLER_0_30_165
*1487 FILLER_0_30_177
*1488 FILLER_0_30_185
*1489 FILLER_0_30_190
*1490 FILLER_0_30_197
*1491 FILLER_0_30_209
*1492 FILLER_0_30_217
*1493 FILLER_0_30_234
*1494 FILLER_0_30_247
*1495 FILLER_0_30_25
*1496 FILLER_0_30_251
*1497 FILLER_0_30_253
*1498 FILLER_0_30_257
*1499 FILLER_0_30_287
*1500 FILLER_0_30_29
*1501 FILLER_0_30_3
*1502 FILLER_0_30_333
*1503 FILLER_0_30_37
*1504 FILLER_0_30_46
*1505 FILLER_0_30_50
*1506 FILLER_0_30_54
*1507 FILLER_0_30_62
*1508 FILLER_0_30_74
*1509 FILLER_0_30_82
*1510 FILLER_0_30_85
*1511 FILLER_0_30_93
*1512 FILLER_0_31_106
*1513 FILLER_0_31_123
*1514 FILLER_0_31_135
*1515 FILLER_0_31_159
*1516 FILLER_0_31_167
*1517 FILLER_0_31_169
*1518 FILLER_0_31_181
*1519 FILLER_0_31_197
*1520 FILLER_0_31_215
*1521 FILLER_0_31_278
*1522 FILLER_0_31_281
*1523 FILLER_0_31_289
*1524 FILLER_0_31_29
*1525 FILLER_0_31_3
*1526 FILLER_0_31_307
*1527 FILLER_0_31_334
*1528 FILLER_0_31_35
*1529 FILLER_0_31_47
*1530 FILLER_0_31_55
*1531 FILLER_0_31_57
*1532 FILLER_0_31_64
*1533 FILLER_0_31_74
*1534 FILLER_0_31_9
*1535 FILLER_0_31_90
*1536 FILLER_0_32_131
*1537 FILLER_0_32_141
*1538 FILLER_0_32_165
*1539 FILLER_0_32_195
*1540 FILLER_0_32_203
*1541 FILLER_0_32_215
*1542 FILLER_0_32_250
*1543 FILLER_0_32_253
*1544 FILLER_0_32_26
*1545 FILLER_0_32_264
*1546 FILLER_0_32_276
*1547 FILLER_0_32_288
*1548 FILLER_0_32_3
*1549 FILLER_0_32_300
*1550 FILLER_0_32_333
*1551 FILLER_0_32_45
*1552 FILLER_0_32_60
*1553 FILLER_0_32_69
*1554 FILLER_0_32_73
*1555 FILLER_0_32_81
*1556 FILLER_0_32_9
*1557 FILLER_0_32_93
*1558 FILLER_0_33_103
*1559 FILLER_0_33_11
*1560 FILLER_0_33_111
*1561 FILLER_0_33_125
*1562 FILLER_0_33_137
*1563 FILLER_0_33_16
*1564 FILLER_0_33_163
*1565 FILLER_0_33_167
*1566 FILLER_0_33_169
*1567 FILLER_0_33_177
*1568 FILLER_0_33_197
*1569 FILLER_0_33_209
*1570 FILLER_0_33_221
*1571 FILLER_0_33_225
*1572 FILLER_0_33_237
*1573 FILLER_0_33_266
*1574 FILLER_0_33_272
*1575 FILLER_0_33_278
*1576 FILLER_0_33_28
*1577 FILLER_0_33_295
*1578 FILLER_0_33_3
*1579 FILLER_0_33_333
*1580 FILLER_0_33_34
*1581 FILLER_0_33_46
*1582 FILLER_0_33_55
*1583 FILLER_0_33_60
*1584 FILLER_0_33_67
*1585 FILLER_0_33_79
*1586 FILLER_0_33_91
*1587 FILLER_0_34_106
*1588 FILLER_0_34_115
*1589 FILLER_0_34_127
*1590 FILLER_0_34_139
*1591 FILLER_0_34_146
*1592 FILLER_0_34_15
*1593 FILLER_0_34_152
*1594 FILLER_0_34_164
*1595 FILLER_0_34_172
*1596 FILLER_0_34_186
*1597 FILLER_0_34_194
*1598 FILLER_0_34_197
*1599 FILLER_0_34_209
*1600 FILLER_0_34_217
*1601 FILLER_0_34_237
*1602 FILLER_0_34_245
*1603 FILLER_0_34_250
*1604 FILLER_0_34_253
*1605 FILLER_0_34_265
*1606 FILLER_0_34_27
*1607 FILLER_0_34_3
*1608 FILLER_0_34_306
*1609 FILLER_0_34_332
*1610 FILLER_0_34_38
*1611 FILLER_0_34_78
*1612 FILLER_0_34_85
*1613 FILLER_0_34_94
*1614 FILLER_0_35_104
*1615 FILLER_0_35_108
*1616 FILLER_0_35_11
*1617 FILLER_0_35_129
*1618 FILLER_0_35_152
*1619 FILLER_0_35_164
*1620 FILLER_0_35_169
*1621 FILLER_0_35_179
*1622 FILLER_0_35_201
*1623 FILLER_0_35_213
*1624 FILLER_0_35_223
*1625 FILLER_0_35_225
*1626 FILLER_0_35_232
*1627 FILLER_0_35_265
*1628 FILLER_0_35_286
*1629 FILLER_0_35_294
*1630 FILLER_0_35_3
*1631 FILLER_0_35_317
*1632 FILLER_0_35_329
*1633 FILLER_0_35_41
*1634 FILLER_0_35_53
*1635 FILLER_0_35_57
*1636 FILLER_0_35_72
*1637 FILLER_0_35_84
*1638 FILLER_0_36_113
*1639 FILLER_0_36_125
*1640 FILLER_0_36_137
*1641 FILLER_0_36_163
*1642 FILLER_0_36_175
*1643 FILLER_0_36_195
*1644 FILLER_0_36_206
*1645 FILLER_0_36_211
*1646 FILLER_0_36_219
*1647 FILLER_0_36_251
*1648 FILLER_0_36_261
*1649 FILLER_0_36_273
*1650 FILLER_0_36_29
*1651 FILLER_0_36_3
*1652 FILLER_0_36_303
*1653 FILLER_0_36_317
*1654 FILLER_0_36_334
*1655 FILLER_0_36_48
*1656 FILLER_0_36_56
*1657 FILLER_0_36_82
*1658 FILLER_0_36_85
*1659 FILLER_0_36_93
*1660 FILLER_0_37_11
*1661 FILLER_0_37_132
*1662 FILLER_0_37_164
*1663 FILLER_0_37_169
*1664 FILLER_0_37_177
*1665 FILLER_0_37_219
*1666 FILLER_0_37_259