*SPEF "ieee 1481-1999"
*DESIGN "tt_um_fountaincoder_top"
*DATE "11:14:06 Wednesday April 10, 2024"
*VENDOR "The OpenROAD Project"
*PROGRAM "OpenROAD"
*VERSION "0889970d1790a2617e69f253221b8bd7626e51dc"
*DESIGN_FLOW "NAME_SCOPE LOCAL" "PIN_CAP NONE"
*DIVIDER /
*DELIMITER :
*BUS_DELIMITER []
*T_UNIT 1 NS
*C_UNIT 1 PF
*R_UNIT 1 OHM
*L_UNIT 1 HENRY

*NAME_MAP
*3 clk
*4 ena
*5 rst_n
*6 ui_in[0]
*7 ui_in[1]
*8 ui_in[2]
*9 ui_in[3]
*10 ui_in[4]
*11 ui_in[5]
*12 ui_in[6]
*13 ui_in[7]
*14 uio_in[0]
*15 uio_in[1]
*16 uio_in[2]
*17 uio_in[3]
*18 uio_in[4]
*19 uio_in[5]
*20 uio_in[6]
*21 uio_in[7]
*22 net17
*23 net18
*24 net19
*25 net20
*26 net28
*27 net29
*28 net30
*29 net31
*30 net21
*31 net22
*32 net23
*33 net24
*34 uio_out[4]
*35 net25
*36 net26
*37 net27
*38 uo_out[0]
*39 uo_out[1]
*40 uo_out[2]
*41 uo_out[3]
*42 uo_out[4]
*43 uo_out[5]
*44 uo_out[6]
*45 uo_out[7]
*46 _0000_
*47 _0001_
*48 _0002_
*49 _0003_
*50 _0004_
*51 _0005_
*52 _0006_
*53 _0007_
*54 _0008_
*55 _0009_
*56 _0010_
*57 _0011_
*58 _0012_
*59 _0013_
*60 _0014_
*61 _0015_
*62 _0016_
*63 _0017_
*64 _0018_
*65 _0019_
*66 _0020_
*67 _0021_
*68 _0022_
*69 _0023_
*70 _0024_
*71 _0025_
*72 _0026_
*73 _0027_
*74 _0028_
*75 _0029_
*76 _0030_
*77 _0031_
*78 _0032_
*79 _0033_
*80 _0034_
*81 _0035_
*82 _0036_
*83 _0037_
*84 _0038_
*85 _0039_
*86 _0040_
*87 _0041_
*88 _0042_
*89 _0043_
*90 _0044_
*91 _0045_
*92 _0046_
*93 _0047_
*94 _0048_
*95 _0049_
*96 _0050_
*97 _0051_
*98 _0052_
*99 _0053_
*100 _0054_
*101 _0055_
*102 _0056_
*103 _0057_
*104 _0058_
*105 _0059_
*106 _0060_
*107 _0061_
*108 _0062_
*109 _0063_
*110 _0064_
*111 _0065_
*112 _0066_
*113 _0067_
*114 _0068_
*115 _0069_
*116 _0070_
*117 _0071_
*118 _0072_
*119 _0073_
*120 _0074_
*121 _0075_
*122 _0076_
*123 _0077_
*124 _0078_
*125 _0079_
*126 _0080_
*127 _0081_
*128 _0082_
*129 _0083_
*130 _0084_
*131 _0085_
*132 _0086_
*133 _0087_
*134 _0088_
*135 _0089_
*136 _0090_
*137 _0091_
*138 _0092_
*139 _0093_
*140 _0094_
*141 _0095_
*142 _0096_
*143 _0097_
*144 _0098_
*145 _0099_
*146 _0100_
*147 _0101_
*148 _0102_
*149 _0103_
*150 _0104_
*151 _0105_
*152 _0106_
*153 _0107_
*154 _0108_
*155 _0109_
*156 _0110_
*157 _0111_
*158 _0112_
*159 _0113_
*160 _0114_
*161 _0115_
*162 _0116_
*163 _0117_
*164 _0118_
*165 _0119_
*166 _0120_
*167 _0121_
*168 _0122_
*169 _0123_
*170 _0124_
*171 _0125_
*172 _0126_
*173 _0127_
*174 _0128_
*175 _0129_
*176 _0130_
*177 _0131_
*178 _0132_
*179 _0133_
*180 _0134_
*181 _0135_
*182 _0136_
*183 _0137_
*184 _0138_
*185 _0139_
*186 _0140_
*187 _0141_
*188 _0142_
*189 _0143_
*190 _0144_
*191 _0145_
*192 _0146_
*193 _0147_
*194 _0148_
*195 _0149_
*196 _0150_
*197 _0151_
*198 _0152_
*199 _0153_
*200 _0154_
*201 _0155_
*202 _0156_
*203 _0157_
*204 _0158_
*205 _0159_
*206 _0160_
*207 _0161_
*208 _0162_
*209 _0163_
*210 _0164_
*211 _0165_
*212 _0166_
*213 _0167_
*214 _0168_
*215 _0169_
*216 _0170_
*217 _0171_
*218 _0172_
*219 _0173_
*220 _0174_
*221 _0175_
*222 _0176_
*223 _0177_
*224 _0178_
*225 _0179_
*226 _0180_
*227 _0181_
*228 _0182_
*229 _0183_
*230 _0184_
*231 _0185_
*232 _0186_
*233 _0187_
*234 _0188_
*235 _0189_
*236 _0190_
*237 _0191_
*238 _0192_
*239 _0193_
*240 _0194_
*241 _0195_
*242 _0196_
*243 _0197_
*244 _0198_
*245 _0199_
*246 _0200_
*247 _0201_
*248 _0202_
*249 _0203_
*250 _0204_
*251 _0205_
*252 _0206_
*253 _0207_
*254 _0208_
*255 _0209_
*256 _0210_
*257 _0211_
*258 _0212_
*259 _0213_
*260 _0214_
*261 _0215_
*262 _0216_
*263 _0217_
*264 _0218_
*265 _0219_
*266 _0220_
*267 _0221_
*268 _0222_
*269 _0223_
*270 _0224_
*271 _0225_
*272 _0226_
*273 _0227_
*274 _0228_
*275 _0229_
*276 _0230_
*277 _0231_
*278 _0232_
*279 _0233_
*280 _0234_
*281 _0235_
*282 _0236_
*283 _0237_
*284 _0238_
*285 _0239_
*286 _0240_
*287 _0241_
*288 _0242_
*289 _0243_
*290 _0244_
*291 _0245_
*292 _0246_
*293 _0247_
*294 _0248_
*295 _0249_
*296 _0250_
*297 _0251_
*298 _0252_
*299 _0253_
*300 _0254_
*301 _0255_
*302 _0256_
*303 _0257_
*304 _0258_
*305 _0259_
*306 _0260_
*307 _0261_
*308 _0262_
*309 _0263_
*310 _0264_
*311 _0265_
*312 _0266_
*313 _0267_
*314 _0268_
*315 _0269_
*316 _0270_
*317 _0271_
*318 _0272_
*319 _0273_
*320 _0274_
*321 _0275_
*322 _0276_
*323 _0277_
*324 _0278_
*325 _0279_
*326 _0280_
*327 _0281_
*328 _0282_
*329 _0283_
*330 _0284_
*331 _0285_
*332 _0286_
*333 _0287_
*334 _0288_
*335 _0289_
*336 _0290_
*337 _0291_
*338 _0292_
*339 _0293_
*340 _0294_
*341 _0295_
*342 _0296_
*343 _0297_
*344 _0298_
*345 _0299_
*346 _0300_
*347 _0301_
*348 _0302_
*349 _0303_
*350 _0304_
*351 _0305_
*352 _0306_
*353 _0307_
*354 _0308_
*355 _0309_
*356 _0310_
*357 _0311_
*358 _0312_
*359 _0313_
*360 _0314_
*361 _0315_
*362 _0316_
*363 _0317_
*364 _0318_
*365 _0319_
*366 _0320_
*367 _0321_
*368 _0322_
*369 _0323_
*370 _0324_
*371 _0325_
*372 _0326_
*373 _0327_
*374 _0328_
*375 _0329_
*376 _0330_
*377 _0331_
*378 _0332_
*379 _0333_
*380 _0334_
*381 _0335_
*382 _0336_
*383 _0337_
*384 _0338_
*385 _0339_
*386 _0340_
*387 _0341_
*388 _0342_
*389 _0343_
*390 _0344_
*391 _0345_
*392 _0346_
*393 _0347_
*394 _0348_
*395 _0349_
*396 _0350_
*397 _0351_
*398 _0352_
*399 _0353_
*400 _0354_
*401 _0355_
*402 _0356_
*403 _0357_
*404 _0358_
*405 _0359_
*406 _0360_
*407 _0361_
*408 _0362_
*409 _0363_
*410 _0364_
*411 _0365_
*412 _0366_
*413 _0367_
*414 _0368_
*415 _0369_
*416 _0370_
*417 _0371_
*418 _0372_
*419 _0373_
*420 _0374_
*421 _0375_
*422 _0376_
*423 _0377_
*424 _0378_
*425 _0379_
*426 _0380_
*427 _0381_
*428 _0382_
*429 _0383_
*430 _0384_
*431 _0385_
*432 _0386_
*433 _0387_
*434 _0388_
*435 _0389_
*436 _0390_
*437 _0391_
*438 _0392_
*439 _0393_
*440 _0394_
*441 _0395_
*442 _0396_
*443 _0397_
*444 _0398_
*445 _0399_
*446 _0400_
*447 _0401_
*448 _0402_
*449 _0403_
*450 _0404_
*451 _0405_
*452 _0406_
*453 _0407_
*454 _0408_
*455 _0409_
*456 _0410_
*457 _0411_
*458 _0412_
*459 _0413_
*460 _0414_
*461 _0415_
*462 _0416_
*463 _0417_
*464 _0418_
*465 _0419_
*466 _0420_
*467 _0421_
*468 _0422_
*469 _0423_
*470 _0424_
*471 _0425_
*472 _0426_
*473 _0427_
*474 _0428_
*475 _0429_
*476 _0430_
*477 _0431_
*478 _0432_
*479 _0433_
*480 _0434_
*481 _0435_
*482 _0436_
*483 _0437_
*484 _0438_
*485 _0439_
*486 _0440_
*487 _0441_
*488 _0442_
*489 _0443_
*490 _0444_
*491 _0445_
*492 _0446_
*493 _0447_
*494 _0448_
*495 _0449_
*496 _0450_
*497 _0451_
*498 _0452_
*499 _0453_
*500 _0454_
*501 _0455_
*502 _0456_
*503 _0457_
*504 _0458_
*505 _0459_
*506 _0460_
*507 _0461_
*508 _0462_
*509 _0463_
*510 _0464_
*511 _0465_
*512 _0466_
*513 _0467_
*514 _0468_
*515 _0469_
*516 _0470_
*517 _0471_
*518 _0472_
*519 _0473_
*520 _0474_
*521 _0475_
*522 _0476_
*523 _0477_
*524 _0478_
*525 _0479_
*526 _0480_
*527 _0481_
*528 _0482_
*529 _0483_
*530 _0484_
*531 _0485_
*532 _0486_
*533 _0487_
*534 _0488_
*535 _0489_
*536 _0490_
*537 _0491_
*538 _0492_
*539 _0493_
*540 _0494_
*541 _0495_
*542 _0496_
*543 _0497_
*544 _0498_
*545 _0499_
*546 _0500_
*547 _0501_
*548 _0502_
*549 _0503_
*550 _0504_
*551 _0505_
*552 _0506_
*553 _0507_
*554 _0508_
*555 _0509_
*556 _0510_
*557 _0511_
*558 _0512_
*559 _0513_
*560 _0514_
*561 _0515_
*562 _0516_
*563 _0517_
*564 _0518_
*565 _0519_
*566 _0520_
*567 _0521_
*568 _0522_
*569 _0523_
*570 _0524_
*571 _0525_
*572 _0526_
*573 _0527_
*574 _0528_
*575 _0529_
*576 _0530_
*577 _0531_
*578 _0532_
*579 _0533_
*580 _0534_
*581 _0535_
*582 _0536_
*583 _0537_
*584 _0538_
*585 _0539_
*586 _0540_
*587 _0541_
*588 _0542_
*589 _0543_
*590 _0544_
*591 _0545_
*592 _0546_
*593 _0547_
*594 _0548_
*595 _0549_
*596 _0550_
*597 _0551_
*598 _0552_
*599 _0553_
*600 _0554_
*601 _0555_
*602 _0556_
*603 _0557_
*604 _0558_
*605 _0559_
*606 _0560_
*607 _0561_
*608 _0562_
*609 _0563_
*610 _0564_
*611 _0565_
*612 _0566_
*613 _0567_
*614 _0568_
*615 _0569_
*616 _0570_
*617 _0571_
*618 _0572_
*619 _0573_
*620 _0574_
*621 _0575_
*622 _0576_
*623 _0577_
*624 _0578_
*625 _0579_
*626 _0580_
*627 _0581_
*628 _0582_
*629 _0583_
*630 _0584_
*631 _0585_
*632 _0586_
*633 _0587_
*634 _0588_
*635 _0589_
*636 _0590_
*637 _0591_
*638 _0592_
*639 _0593_
*640 _0594_
*641 _0595_
*642 _0596_
*643 _0597_
*644 _0598_
*645 _0599_
*646 _0600_
*647 _0601_
*648 _0602_
*649 _0603_
*650 _0604_
*651 _0605_
*652 _0606_
*653 _0607_
*654 _0608_
*655 _0609_
*656 _0610_
*657 _0611_
*658 _0612_
*659 _0613_
*660 _0614_
*661 _0615_
*662 _0616_
*663 _0617_
*664 _0618_
*665 _0619_
*666 _0620_
*667 _0621_
*668 _0622_
*669 _0623_
*670 _0624_
*671 _0625_
*672 _0626_
*673 _0627_
*674 _0628_
*675 _0629_
*676 _0630_
*677 _0631_
*678 _0632_
*679 _0633_
*680 _0634_
*681 _0635_
*682 _0636_
*683 _0637_
*684 _0638_
*685 _0639_
*686 _0640_
*687 _0641_
*688 _0642_
*689 _0643_
*690 _0644_
*691 _0645_
*692 _0646_
*693 _0647_
*694 _0648_
*695 _0649_
*696 _0650_
*697 _0651_
*698 _0652_
*699 _0653_
*700 _0654_
*701 _0655_
*702 _0656_
*703 _0657_
*704 _0658_
*705 _0659_
*706 _0660_
*707 _0661_
*708 _0662_
*709 _0663_
*710 _0664_
*711 _0665_
*712 _0666_
*713 _0667_
*714 _0668_
*715 _0669_
*716 _0670_
*717 _0671_
*718 _0672_
*719 _0673_
*720 _0674_
*721 _0675_
*722 _0676_
*723 _0677_
*724 _0678_
*725 _0679_
*726 _0680_
*727 _0681_
*728 _0682_
*729 _0683_
*730 _0684_
*731 _0685_
*732 _0686_
*733 _0687_
*734 _0688_
*735 _0689_
*736 _0690_
*737 _0691_
*738 _0692_
*739 _0693_
*740 _0694_
*741 _0695_
*742 _0696_
*743 _0697_
*744 _0698_
*745 _0699_
*746 _0700_
*747 _0701_
*748 _0702_
*749 _0703_
*750 _0704_
*751 _0705_
*752 _0706_
*753 _0707_
*754 _0708_
*755 _0709_
*756 _0710_
*757 _0711_
*758 _0712_
*759 _0713_
*760 _0714_
*761 _0715_
*762 _0716_
*763 _0717_
*764 _0718_
*765 _0719_
*766 _0720_
*767 _0721_
*768 _0722_
*769 _0723_
*770 _0724_
*771 _0725_
*772 _0726_
*773 _0727_
*774 _0728_
*775 _0729_
*776 _0730_
*777 _0731_
*778 _0732_
*779 _0733_
*780 _0734_
*781 _0735_
*782 _0736_
*783 _0737_
*784 _0738_
*785 _0739_
*786 _0740_
*787 _0741_
*788 _0742_
*789 _0743_
*790 _0744_
*791 _0745_
*792 _0746_
*793 _0747_
*794 _0748_
*795 _0749_
*796 _0750_
*797 _0751_
*798 _0752_
*799 _0753_
*800 _0754_
*801 _0755_
*802 _0756_
*803 _0757_
*804 _0758_
*805 _0759_
*806 _0760_
*807 _0761_
*808 _0762_
*809 _0763_
*810 _0764_
*811 _0765_
*812 _0766_
*813 _0767_
*814 _0768_
*815 _0769_
*816 _0770_
*817 _0771_
*818 _0772_
*819 _0773_
*820 _0774_
*821 _0775_
*822 _0776_
*823 _0777_
*824 _0778_
*825 _0779_
*826 _0780_
*827 _0781_
*828 _0782_
*829 _0783_
*830 _0784_
*831 _0785_
*832 _0786_
*833 _0787_
*834 _0788_
*835 _0789_
*836 _0790_
*837 _0791_
*838 _0792_
*839 _0793_
*840 _0794_
*841 _0795_
*842 _0796_
*843 _0797_
*844 _0798_
*845 _0799_
*846 _0800_
*847 _0801_
*848 _0802_
*849 _0803_
*850 _0804_
*851 _0805_
*852 _0806_
*853 _0807_
*854 _0808_
*855 _0809_
*856 _0810_
*857 _0811_
*858 _0812_
*859 _0813_
*860 _0814_
*861 _0815_
*862 _0816_
*863 _0817_
*864 _0818_
*865 _0819_
*866 _0820_
*867 _0821_
*868 _0822_
*869 _0823_
*870 _0824_
*871 _0825_
*872 _0826_
*873 _0827_
*874 _0828_
*875 _0829_
*876 _0830_
*877 _0831_
*878 _0832_
*879 _0833_
*880 _0834_
*881 _0835_
*882 _0836_
*883 _0837_
*884 _0838_
*885 _0839_
*886 _0840_
*887 _0841_
*888 _0842_
*889 _0843_
*890 _0844_
*891 _0845_
*892 _0846_
*893 _0847_
*894 _0848_
*895 _0849_
*896 _0850_
*897 _0851_
*898 _0852_
*899 _0853_
*900 _0854_
*901 _0855_
*902 _0856_
*903 _0857_
*904 _0858_
*905 _0859_
*906 _0860_
*907 _0861_
*908 _0862_
*909 _0863_
*910 _0864_
*911 _0865_
*912 _0866_
*913 _0867_
*914 _0868_
*915 _0869_
*916 _0870_
*917 _0871_
*918 _0872_
*919 _0873_
*920 _0874_
*921 _0875_
*922 _0876_
*923 _0877_
*924 _0878_
*925 _0879_
*926 _0880_
*927 _0881_
*928 _0882_
*929 _0883_
*930 _0884_
*931 _0885_
*932 _0886_
*933 _0887_
*934 _0888_
*935 _0889_
*936 _0890_
*937 _0891_
*938 _0892_
*939 _0893_
*940 _0894_
*941 _0895_
*942 _0896_
*943 _0897_
*944 _0898_
*945 _0899_
*946 _0900_
*947 _0901_
*948 _0902_
*949 _0903_
*950 _0904_
*951 _0905_
*952 _0906_
*953 _0907_
*954 clknet_0_clk
*955 clknet_4_0_0_clk
*956 clknet_4_10_0_clk
*957 clknet_4_11_0_clk
*958 clknet_4_12_0_clk
*959 clknet_4_13_0_clk
*960 clknet_4_14_0_clk
*961 clknet_4_15_0_clk
*962 clknet_4_1_0_clk
*963 clknet_4_2_0_clk
*964 clknet_4_3_0_clk
*965 clknet_4_4_0_clk
*966 clknet_4_5_0_clk
*967 clknet_4_6_0_clk
*968 clknet_4_7_0_clk
*969 clknet_4_8_0_clk
*970 clknet_4_9_0_clk
*971 madd\.count\[0\]
*972 madd\.count\[1\]
*973 madd\.count\[2\]
*974 madd\.count\[3\]
*975 madd\.count\[4\]
*976 madd\.count\[5\]
*977 madd\.count\[6\]
*978 madd\.count\[7\]
*979 madd\.delta\[0\]
*980 madd\.delta\[1\]
*981 madd\.delta\[2\]
*982 madd\.delta\[3\]
*983 madd\.delta\[4\]
*984 madd\.delta\[5\]
*985 madd\.i\[0\]
*986 madd\.i\[1\]
*987 madd\.i\[2\]
*988 madd\.i\[3\]
*989 madd\.i_e\[0\]
*990 madd\.mem\[0\]\[0\]
*991 madd\.mem\[0\]\[1\]
*992 madd\.mem\[0\]\[2\]
*993 madd\.mem\[0\]\[3\]
*994 madd\.mem\[0\]\[4\]
*995 madd\.mem\[0\]\[5\]
*996 madd\.mem\[10\]\[0\]
*997 madd\.mem\[10\]\[1\]
*998 madd\.mem\[10\]\[2\]
*999 madd\.mem\[10\]\[3\]
*1000 madd\.mem\[10\]\[4\]
*1001 madd\.mem\[10\]\[5\]
*1002 madd\.mem\[11\]\[0\]
*1003 madd\.mem\[11\]\[1\]
*1004 madd\.mem\[11\]\[2\]
*1005 madd\.mem\[11\]\[3\]
*1006 madd\.mem\[11\]\[4\]
*1007 madd\.mem\[11\]\[5\]
*1008 madd\.mem\[12\]\[0\]
*1009 madd\.mem\[12\]\[1\]
*1010 madd\.mem\[12\]\[2\]
*1011 madd\.mem\[12\]\[3\]
*1012 madd\.mem\[12\]\[4\]
*1013 madd\.mem\[12\]\[5\]
*1014 madd\.mem\[13\]\[0\]
*1015 madd\.mem\[13\]\[1\]
*1016 madd\.mem\[13\]\[2\]
*1017 madd\.mem\[13\]\[3\]
*1018 madd\.mem\[13\]\[4\]
*1019 madd\.mem\[13\]\[5\]
*1020 madd\.mem\[14\]\[0\]
*1021 madd\.mem\[14\]\[1\]
*1022 madd\.mem\[14\]\[2\]
*1023 madd\.mem\[14\]\[3\]
*1024 madd\.mem\[14\]\[4\]
*1025 madd\.mem\[14\]\[5\]
*1026 madd\.mem\[15\]\[0\]
*1027 madd\.mem\[15\]\[1\]
*1028 madd\.mem\[15\]\[2\]
*1029 madd\.mem\[15\]\[3\]
*1030 madd\.mem\[15\]\[4\]
*1031 madd\.mem\[15\]\[5\]
*1032 madd\.mem\[1\]\[0\]
*1033 madd\.mem\[1\]\[1\]
*1034 madd\.mem\[1\]\[2\]
*1035 madd\.mem\[1\]\[3\]
*1036 madd\.mem\[1\]\[4\]
*1037 madd\.mem\[1\]\[5\]
*1038 madd\.mem\[2\]\[0\]
*1039 madd\.mem\[2\]\[1\]
*1040 madd\.mem\[2\]\[2\]
*1041 madd\.mem\[2\]\[3\]
*1042 madd\.mem\[2\]\[4\]
*1043 madd\.mem\[2\]\[5\]
*1044 madd\.mem\[3\]\[0\]
*1045 madd\.mem\[3\]\[1\]
*1046 madd\.mem\[3\]\[2\]
*1047 madd\.mem\[3\]\[3\]
*1048 madd\.mem\[3\]\[4\]
*1049 madd\.mem\[3\]\[5\]
*1050 madd\.mem\[4\]\[0\]
*1051 madd\.mem\[4\]\[1\]
*1052 madd\.mem\[4\]\[2\]
*1053 madd\.mem\[4\]\[3\]
*1054 madd\.mem\[4\]\[4\]
*1055 madd\.mem\[4\]\[5\]
*1056 madd\.mem\[5\]\[0\]
*1057 madd\.mem\[5\]\[1\]
*1058 madd\.mem\[5\]\[2\]
*1059 madd\.mem\[5\]\[3\]
*1060 madd\.mem\[5\]\[4\]
*1061 madd\.mem\[5\]\[5\]
*1062 madd\.mem\[6\]\[0\]
*1063 madd\.mem\[6\]\[1\]
*1064 madd\.mem\[6\]\[2\]
*1065 madd\.mem\[6\]\[3\]
*1066 madd\.mem\[6\]\[4\]
*1067 madd\.mem\[6\]\[5\]
*1068 madd\.mem\[7\]\[0\]
*1069 madd\.mem\[7\]\[1\]
*1070 madd\.mem\[7\]\[2\]
*1071 madd\.mem\[7\]\[3\]
*1072 madd\.mem\[7\]\[4\]
*1073 madd\.mem\[7\]\[5\]
*1074 madd\.mem\[8\]\[0\]
*1075 madd\.mem\[8\]\[1\]
*1076 madd\.mem\[8\]\[2\]
*1077 madd\.mem\[8\]\[3\]
*1078 madd\.mem\[8\]\[4\]
*1079 madd\.mem\[8\]\[5\]
*1080 madd\.mem\[9\]\[0\]
*1081 madd\.mem\[9\]\[1\]
*1082 madd\.mem\[9\]\[2\]
*1083 madd\.mem\[9\]\[3\]
*1084 madd\.mem\[9\]\[4\]
*1085 madd\.mem\[9\]\[5\]
*1086 madd\.set
*1087 madd\.total\[0\]
*1088 madd\.total\[1\]
*1089 madd\.total\[2\]
*1090 madd\.total\[3\]
*1091 madd\.total\[4\]
*1092 madd\.total\[5\]
*1093 madd\.total\[6\]
*1094 madd\.total\[7\]
*1095 net1
*1096 net10
*1097 net11
*1098 net12
*1099 net13
*1100 net14
*1101 net15
*1102 net16
*1103 net2
*1104 net3
*1105 net32
*1106 net33
*1107 net34
*1108 net35
*1109 net36
*1110 net37
*1111 net38
*1112 net39
*1113 net4
*1114 net40
*1115 net41
*1116 net42
*1117 net43
*1118 net44
*1119 net45
*1120 net46
*1121 net47
*1122 net48
*1123 net49
*1124 net5
*1125 net50
*1126 net51
*1127 net52
*1128 net53
*1129 net54
*1130 net55
*1131 net56
*1132 net57
*1133 net58
*1134 net59
*1135 net6
*1136 net60
*1137 net61
*1138 net62
*1139 net63
*1140 net64
*1141 net65
*1142 net66
*1143 net67
*1144 net68
*1145 net69
*1146 net7
*1147 net70
*1148 net71
*1149 net72
*1150 net73
*1151 net74
*1152 net75
*1153 net76
*1154 net77
*1155 net78
*1156 net79
*1157 net8
*1158 net80
*1159 net81
*1160 net82
*1161 net83
*1162 net84
*1163 net85
*1164 net86
*1165 net87
*1166 net88
*1167 net89
*1168 net9
*1169 net90
*1170 net91
*1171 net92
*1172 net93
*1173 out_top
*1174 ANTENNA_1
*1175 ANTENNA_2
*1176 ANTENNA_3
*1177 ANTENNA_4
*1178 FILLER_0_0_109
*1179 FILLER_0_0_113
*1180 FILLER_0_0_125
*1181 FILLER_0_0_137
*1182 FILLER_0_0_141
*1183 FILLER_0_0_15
*1184 FILLER_0_0_153
*1185 FILLER_0_0_165
*1186 FILLER_0_0_169
*1187 FILLER_0_0_181
*1188 FILLER_0_0_193
*1189 FILLER_0_0_197
*1190 FILLER_0_0_209
*1191 FILLER_0_0_221
*1192 FILLER_0_0_225
*1193 FILLER_0_0_237
*1194 FILLER_0_0_249
*1195 FILLER_0_0_253
*1196 FILLER_0_0_265
*1197 FILLER_0_0_27
*1198 FILLER_0_0_277
*1199 FILLER_0_0_281
*1200 FILLER_0_0_29
*1201 FILLER_0_0_293
*1202 FILLER_0_0_3
*1203 FILLER_0_0_305
*1204 FILLER_0_0_309
*1205 FILLER_0_0_321
*1206 FILLER_0_0_333
*1207 FILLER_0_0_41
*1208 FILLER_0_0_53
*1209 FILLER_0_0_57
*1210 FILLER_0_0_69
*1211 FILLER_0_0_81
*1212 FILLER_0_0_85
*1213 FILLER_0_0_97
*1214 FILLER_0_10_10
*1215 FILLER_0_10_111
*1216 FILLER_0_10_120
*1217 FILLER_0_10_132
*1218 FILLER_0_10_139
*1219 FILLER_0_10_141
*1220 FILLER_0_10_159
*1221 FILLER_0_10_167
*1222 FILLER_0_10_173
*1223 FILLER_0_10_192
*1224 FILLER_0_10_202
*1225 FILLER_0_10_21
*1226 FILLER_0_10_214
*1227 FILLER_0_10_225
*1228 FILLER_0_10_243
*1229 FILLER_0_10_251
*1230 FILLER_0_10_253
*1231 FILLER_0_10_259
*1232 FILLER_0_10_27
*1233 FILLER_0_10_282
*1234 FILLER_0_10_29
*1235 FILLER_0_10_3
*1236 FILLER_0_10_304
*1237 FILLER_0_10_318
*1238 FILLER_0_10_330
*1239 FILLER_0_10_334
*1240 FILLER_0_10_50
*1241 FILLER_0_10_79
*1242 FILLER_0_10_83
*1243 FILLER_0_10_85
*1244 FILLER_0_11_109
*1245 FILLER_0_11_144
*1246 FILLER_0_11_160
*1247 FILLER_0_11_178
*1248 FILLER_0_11_184
*1249 FILLER_0_11_204
*1250 FILLER_0_11_208
*1251 FILLER_0_11_225
*1252 FILLER_0_11_231
*1253 FILLER_0_11_254
*1254 FILLER_0_11_272
*1255 FILLER_0_11_28
*1256 FILLER_0_11_281
*1257 FILLER_0_11_298
*1258 FILLER_0_11_310
*1259 FILLER_0_11_48
*1260 FILLER_0_11_66
*1261 FILLER_0_11_70
*1262 FILLER_0_11_78
*1263 FILLER_0_11_95
*1264 FILLER_0_11_99
*1265 FILLER_0_12_106
*1266 FILLER_0_12_112
*1267 FILLER_0_12_120
*1268 FILLER_0_12_139
*1269 FILLER_0_12_15
*1270 FILLER_0_12_162
*1271 FILLER_0_12_174
*1272 FILLER_0_12_180
*1273 FILLER_0_12_19
*1274 FILLER_0_12_195
*1275 FILLER_0_12_202
*1276 FILLER_0_12_206
*1277 FILLER_0_12_219
*1278 FILLER_0_12_241
*1279 FILLER_0_12_249
*1280 FILLER_0_12_253
*1281 FILLER_0_12_263
*1282 FILLER_0_12_292
*1283 FILLER_0_12_3
*1284 FILLER_0_12_333
*1285 FILLER_0_12_45
*1286 FILLER_0_12_62
*1287 FILLER_0_12_94
*1288 FILLER_0_13_105
*1289 FILLER_0_13_11
*1290 FILLER_0_13_111
*1291 FILLER_0_13_124
*1292 FILLER_0_13_134
*1293 FILLER_0_13_141
*1294 FILLER_0_13_175
*1295 FILLER_0_13_193
*1296 FILLER_0_13_216
*1297 FILLER_0_13_22
*1298 FILLER_0_13_232
*1299 FILLER_0_13_240
*1300 FILLER_0_13_272
*1301 FILLER_0_13_281
*1302 FILLER_0_13_3
*1303 FILLER_0_13_309
*1304 FILLER_0_13_322
*1305 FILLER_0_13_332
*1306 FILLER_0_13_37
*1307 FILLER_0_13_7
*1308 FILLER_0_13_82
*1309 FILLER_0_13_93
*1310 FILLER_0_14_106
*1311 FILLER_0_14_118
*1312 FILLER_0_14_141
*1313 FILLER_0_14_145
*1314 FILLER_0_14_154
*1315 FILLER_0_14_162
*1316 FILLER_0_14_171
*1317 FILLER_0_14_187
*1318 FILLER_0_14_195
*1319 FILLER_0_14_211
*1320 FILLER_0_14_224
*1321 FILLER_0_14_239
*1322 FILLER_0_14_250
*1323 FILLER_0_14_259
*1324 FILLER_0_14_263
*1325 FILLER_0_14_280
*1326 FILLER_0_14_287
*1327 FILLER_0_14_29
*1328 FILLER_0_14_307
*1329 FILLER_0_14_317
*1330 FILLER_0_14_46
*1331 FILLER_0_14_63
*1332 FILLER_0_14_68
*1333 FILLER_0_14_74
*1334 FILLER_0_14_82
*1335 FILLER_0_15_104
*1336 FILLER_0_15_11
*1337 FILLER_0_15_113
*1338 FILLER_0_15_126
*1339 FILLER_0_15_138
*1340 FILLER_0_15_163
*1341 FILLER_0_15_167
*1342 FILLER_0_15_174
*1343 FILLER_0_15_198
*1344 FILLER_0_15_219
*1345 FILLER_0_15_223
*1346 FILLER_0_15_225
*1347 FILLER_0_15_23
*1348 FILLER_0_15_239
*1349 FILLER_0_15_252
*1350 FILLER_0_15_265
*1351 FILLER_0_15_269
*1352 FILLER_0_15_277
*1353 FILLER_0_15_288
*1354 FILLER_0_15_3
*1355 FILLER_0_15_318
*1356 FILLER_0_15_45
*1357 FILLER_0_15_57
*1358 FILLER_0_15_7
*1359 FILLER_0_15_81
*1360 FILLER_0_15_85
*1361 FILLER_0_16_118
*1362 FILLER_0_16_128
*1363 FILLER_0_16_137
*1364 FILLER_0_16_147
*1365 FILLER_0_16_167
*1366 FILLER_0_16_180
*1367 FILLER_0_16_190
*1368 FILLER_0_16_197
*1369 FILLER_0_16_231
*1370 FILLER_0_16_248
*1371 FILLER_0_16_253
*1372 FILLER_0_16_268
*1373 FILLER_0_16_285
*1374 FILLER_0_16_29
*1375 FILLER_0_16_304
*1376 FILLER_0_16_333
*1377 FILLER_0_16_38
*1378 FILLER_0_16_63
*1379 FILLER_0_16_75
*1380 FILLER_0_16_83
*1381 FILLER_0_16_85
*1382 FILLER_0_16_89
*1383 FILLER_0_17_104
*1384 FILLER_0_17_120
*1385 FILLER_0_17_128
*1386 FILLER_0_17_145
*1387 FILLER_0_17_156
*1388 FILLER_0_17_189
*1389 FILLER_0_17_198
*1390 FILLER_0_17_210
*1391 FILLER_0_17_218
*1392 FILLER_0_17_225
*1393 FILLER_0_17_261
*1394 FILLER_0_17_281
*1395 FILLER_0_17_289
*1396 FILLER_0_17_30
*1397 FILLER_0_17_308
*1398 FILLER_0_17_334
*1399 FILLER_0_17_45
*1400 FILLER_0_17_67
*1401 FILLER_0_17_89
*1402 FILLER_0_18_114
*1403 FILLER_0_18_123
*1404 FILLER_0_18_127
*1405 FILLER_0_18_15
*1406 FILLER_0_18_150
*1407 FILLER_0_18_154
*1408 FILLER_0_18_171
*1409 FILLER_0_18_181
*1410 FILLER_0_18_187
*1411 FILLER_0_18_19
*1412 FILLER_0_18_225
*1413 FILLER_0_18_236
*1414 FILLER_0_18_249
*1415 FILLER_0_18_253
*1416 FILLER_0_18_265
*1417 FILLER_0_18_269
*1418 FILLER_0_18_273
*1419 FILLER_0_18_29
*1420 FILLER_0_18_290
*1421 FILLER_0_18_3
*1422 FILLER_0_18_307
*1423 FILLER_0_18_309
*1424 FILLER_0_18_322
*1425 FILLER_0_18_332
*1426 FILLER_0_18_58
*1427 FILLER_0_18_83
*1428 FILLER_0_18_85
*1429 FILLER_0_18_94
*1430 FILLER_0_18_98
*1431 FILLER_0_19_100
*1432 FILLER_0_19_120
*1433 FILLER_0_19_139
*1434 FILLER_0_19_157
*1435 FILLER_0_19_169
*1436 FILLER_0_19_173
*1437 FILLER_0_19_191
*1438 FILLER_0_19_197
*1439 FILLER_0_19_205
*1440 FILLER_0_19_209
*1441 FILLER_0_19_21
*1442 FILLER_0_19_215
*1443 FILLER_0_19_223
*1444 FILLER_0_19_231
*1445 FILLER_0_19_259
*1446 FILLER_0_19_279
*1447 FILLER_0_19_281
*1448 FILLER_0_19_289
*1449 FILLER_0_19_298
*1450 FILLER_0_19_3
*1451 FILLER_0_19_310
*1452 FILLER_0_19_45
*1453 FILLER_0_19_57
*1454 FILLER_0_19_69
*1455 FILLER_0_19_73
*1456 FILLER_0_19_82
*1457 FILLER_0_1_106
*1458 FILLER_0_1_113
*1459 FILLER_0_1_125
*1460 FILLER_0_1_145
*1461 FILLER_0_1_15
*1462 FILLER_0_1_157
*1463 FILLER_0_1_165
*1464 FILLER_0_1_178
*1465 FILLER_0_1_186
*1466 FILLER_0_1_205
*1467 FILLER_0_1_217
*1468 FILLER_0_1_223
*1469 FILLER_0_1_225
*1470 FILLER_0_1_229
*1471 FILLER_0_1_241
*1472 FILLER_0_1_253
*1473 FILLER_0_1_265
*1474 FILLER_0_1_27
*1475 FILLER_0_1_277
*1476 FILLER_0_1_281
*1477 FILLER_0_1_293
*1478 FILLER_0_1_3
*1479 FILLER_0_1_305
*1480 FILLER_0_1_317
*1481 FILLER_0_1_329
*1482 FILLER_0_1_39
*1483 FILLER_0_1_51
*1484 FILLER_0_1_55
*1485 FILLER_0_1_57
*1486 FILLER_0_1_69
*1487 FILLER_0_1_75
*1488 FILLER_0_1_87
*1489 FILLER_0_1_94
*1490 FILLER_0_20_105
*1491 FILLER_0_20_110
*1492 FILLER_0_20_12
*1493 FILLER_0_20_141
*1494 FILLER_0_20_16
*1495 FILLER_0_20_161
*1496 FILLER_0_20_205
*1497 FILLER_0_20_217
*1498 FILLER_0_20_227
*1499 FILLER_0_20_237
*1500 FILLER_0_20_248
*1501 FILLER_0_20_26
*1502 FILLER_0_20_265
*1503 FILLER_0_20_269
*1504 FILLER_0_20_29
*1505 FILLER_0_20_293
*1506 FILLER_0_20_3
*1507 FILLER_0_20_305
*1508 FILLER_0_20_309
*1509 FILLER_0_20_313
*1510 FILLER_0_20_330
*1511 FILLER_0_20_334
*1512 FILLER_0_20_49
*1513 FILLER_0_20_67
*1514 FILLER_0_20_77
*1515 FILLER_0_20_83
*1516 FILLER_0_20_85
*1517 FILLER_0_20_89
*1518 FILLER_0_20_93
*1519 FILLER_0_21_121
*1520 FILLER_0_21_134
*1521 FILLER_0_21_138
*1522 FILLER_0_21_153
*1523 FILLER_0_21_164
*1524 FILLER_0_21_178
*1525 FILLER_0_21_186
*1526 FILLER_0_21_198
*1527 FILLER_0_21_20
*1528 FILLER_0_21_205
*1529 FILLER_0_21_219
*1530 FILLER_0_21_223
*1531 FILLER_0_21_225
*1532 FILLER_0_21_244
*1533 FILLER_0_21_268
*1534 FILLER_0_21_272
*1535 FILLER_0_21_281
*1536 FILLER_0_21_289
*1537 FILLER_0_21_3
*1538 FILLER_0_21_312
*1539 FILLER_0_21_32
*1540 FILLER_0_21_320
*1541 FILLER_0_21_330
*1542 FILLER_0_21_334
*1543 FILLER_0_21_41
*1544 FILLER_0_21_52
*1545 FILLER_0_21_57
*1546 FILLER_0_21_61
*1547 FILLER_0_21_78
*1548 FILLER_0_21_87
*1549 FILLER_0_21_96
*1550 FILLER_0_22_108
*1551 FILLER_0_22_11
*1552 FILLER_0_22_112
*1553 FILLER_0_22_120
*1554 FILLER_0_22_124
*1555 FILLER_0_22_141
*1556 FILLER_0_22_147
*1557 FILLER_0_22_154
*1558 FILLER_0_22_158
*1559 FILLER_0_22_195
*1560 FILLER_0_22_197
*1561 FILLER_0_22_213
*1562 FILLER_0_22_224
*1563 FILLER_0_22_24
*1564 FILLER_0_22_241
*1565 FILLER_0_22_245
*1566 FILLER_0_22_250
*1567 FILLER_0_22_257
*1568 FILLER_0_22_271
*1569 FILLER_0_22_282
*1570 FILLER_0_22_29
*1571 FILLER_0_22_3
*1572 FILLER_0_22_304
*1573 FILLER_0_22_309
*1574 FILLER_0_22_333
*1575 FILLER_0_22_36
*1576 FILLER_0_22_48
*1577 FILLER_0_22_52
*1578 FILLER_0_22_61
*1579 FILLER_0_22_65
*1580 FILLER_0_22_69
*1581 FILLER_0_22_7
*1582 FILLER_0_22_77
*1583 FILLER_0_22_85
*1584 FILLER_0_22_95
*1585 FILLER_0_23_113
*1586 FILLER_0_23_134
*1587 FILLER_0_23_138
*1588 FILLER_0_23_153
*1589 FILLER_0_23_165
*1590 FILLER_0_23_182
*1591 FILLER_0_23_188
*1592 FILLER_0_23_19
*1593 FILLER_0_23_198
*1594 FILLER_0_23_207
*1595 FILLER_0_23_220
*1596 FILLER_0_23_232
*1597 FILLER_0_23_251
*1598 FILLER_0_23_259
*1599 FILLER_0_23_265
*1600 FILLER_0_23_27
*1601 FILLER_0_23_272
*1602 FILLER_0_23_281
*1603 FILLER_0_23_291
*1604 FILLER_0_23_333
*1605 FILLER_0_23_54
*1606 FILLER_0_23_82
*1607 FILLER_0_23_90
*1608 FILLER_0_23_98
*1609 FILLER_0_24_11
*1610 FILLER_0_24_117
*1611 FILLER_0_24_125
*1612 FILLER_0_24_15
*1613 FILLER_0_24_154
*1614 FILLER_0_24_172
*1615 FILLER_0_24_180
*1616 FILLER_0_24_188
*1617 FILLER_0_24_203
*1618 FILLER_0_24_213
*1619 FILLER_0_24_225
*1620 FILLER_0_24_233
*1621 FILLER_0_24_25
*1622 FILLER_0_24_278
*1623 FILLER_0_24_296
*1624 FILLER_0_24_3
*1625 FILLER_0_24_300
*1626 FILLER_0_24_307
*1627 FILLER_0_24_318
*1628 FILLER_0_24_44
*1629 FILLER_0_24_7
*1630 FILLER_0_24_88
*1631 FILLER_0_25_105
*1632 FILLER_0_25_111
*1633 FILLER_0_25_113
*1634 FILLER_0_25_117
*1635 FILLER_0_25_131
*1636 FILLER_0_25_150
*1637 FILLER_0_25_172
*1638 FILLER_0_25_199
*1639 FILLER_0_25_20
*1640 FILLER_0_25_214
*1641 FILLER_0_25_218
*1642 FILLER_0_25_231
*1643 FILLER_0_25_264
*1644 FILLER_0_25_274
*1645 FILLER_0_25_293
*1646 FILLER_0_25_3
*1647 FILLER_0_25_314
*1648 FILLER_0_25_32
*1649 FILLER_0_25_329
*1650 FILLER_0_25_52
*1651 FILLER_0_25_57
*1652 FILLER_0_25_81
*1653 FILLER_0_25_89
*1654 FILLER_0_25_94
*1655 FILLER_0_26_102
*1656 FILLER_0_26_11
*1657 FILLER_0_26_114
*1658 FILLER_0_26_118
*1659 FILLER_0_26_141
*1660 FILLER_0_26_153
*1661 FILLER_0_26_194
*1662 FILLER_0_26_197
*1663 FILLER_0_26_201
*1664 FILLER_0_26_209
*1665 FILLER_0_26_24
*1666 FILLER_0_26_248
*1667 FILLER_0_26_272
*1668 FILLER_0_26_280
*1669 FILLER_0_26_3
*1670 FILLER_0_26_307
*1671 FILLER_0_26_318
*1672 FILLER_0_26_38
*1673 FILLER_0_26_54
*1674 FILLER_0_26_7
*1675 FILLER_0_26_74
*1676 FILLER_0_26_85
*1677 FILLER_0_27_103
*1678 FILLER_0_27_126
*1679 FILLER_0_27_134
*1680 FILLER_0_27_144
*1681 FILLER_0_27_155
*1682 FILLER_0_27_165
*1683 FILLER_0_27_180
*1684 FILLER_0_27_192
*1685 FILLER_0_27_213
*1686 FILLER_0_27_221
*1687 FILLER_0_27_236
*1688 FILLER_0_27_243
*1689 FILLER_0_27_255
*1690 FILLER_0_27_271
*1691 FILLER_0_27_278
*1692 FILLER_0_27_284
*1693 FILLER_0_27_3
*1694 FILLER_0_27_311
*1695 FILLER_0_27_324
*1696 FILLER_0_27_332
*1697 FILLER_0_27_38
*1698 FILLER_0_27_68
*1699 FILLER_0_27_84
*1700 FILLER_0_27_92
*1701 FILLER_0_28_101
*1702 FILLER_0_28_144
*1703 FILLER_0_28_163
*1704 FILLER_0_28_189
*1705 FILLER_0_28_195
*1706 FILLER_0_28_200
*1707 FILLER_0_28_21
*1708 FILLER_0_28_217
*1709 FILLER_0_28_244
*1710 FILLER_0_28_249
*1711 FILLER_0_28_253
*1712 FILLER_0_28_258
*1713 FILLER_0_28_264
*1714 FILLER_0_28_27
*1715 FILLER_0_28_280
*1716 FILLER_0_28_3
*1717 FILLER_0_28_305
*1718 FILLER_0_28_317
*1719 FILLER_0_28_32
*1720 FILLER_0_28_332
*1721 FILLER_0_28_42
*1722 FILLER_0_28_65
*1723 FILLER_0_28_79
*1724 FILLER_0_29_12
*1725 FILLER_0_29_136
*1726 FILLER_0_29_150
*1727 FILLER_0_29_162
*1728 FILLER_0_29_169
*1729 FILLER_0_29_181
*1730 FILLER_0_29_185
*1731 FILLER_0_29_220
*1732 FILLER_0_29_239
*1733 FILLER_0_29_245
*1734 FILLER_0_29_253
*1735 FILLER_0_29_270
*1736 FILLER_0_29_276
*1737 FILLER_0_29_288
*1738 FILLER_0_29_297
*1739 FILLER_0_29_3
*1740 FILLER_0_29_304
*1741 FILLER_0_29_309
*1742 FILLER_0_29_317
*1743 FILLER_0_29_325
*1744 FILLER_0_29_57
*1745 FILLER_0_29_80
*1746 FILLER_0_2_104
*1747 FILLER_0_2_125
*1748 FILLER_0_2_136
*1749 FILLER_0_2_15
*1750 FILLER_0_2_157
*1751 FILLER_0_2_177
*1752 FILLER_0_2_185
*1753 FILLER_0_2_200
*1754 FILLER_0_2_204
*1755 FILLER_0_2_221
*1756 FILLER_0_2_239
*1757 FILLER_0_2_251
*1758 FILLER_0_2_253
*1759 FILLER_0_2_261
*1760 FILLER_0_2_269
*1761 FILLER_0_2_27
*1762 FILLER_0_2_278
*1763 FILLER_0_2_29
*1764 FILLER_0_2_290
*1765 FILLER_0_2_3
*1766 FILLER_0_2_302
*1767 FILLER_0_2_309
*1768 FILLER_0_2_321
*1769 FILLER_0_2_333
*1770 FILLER_0_2_41
*1771 FILLER_0_2_53
*1772 FILLER_0_2_85
*1773 FILLER_0_30_179
*1774 FILLER_0_30_185
*1775 FILLER_0_30_194
*1776 FILLER_0_30_208
*1777 FILLER_0_30_21
*1778 FILLER_0_30_243
*1779 FILLER_0_30_253
*1780 FILLER_0_30_265
*1781 FILLER_0_30_27
*1782 FILLER_0_30_271
*1783 FILLER_0_30_283
*1784 FILLER_0_30_3
*1785 FILLER_0_30_301
*1786 FILLER_0_30_307
*1787 FILLER_0_30_309
*1788 FILLER_0_30_333
*1789 FILLER_0_30_36
*1790 FILLER_0_30_42
*1791 FILLER_0_30_46
*1792 FILLER_0_30_50
*1793 FILLER_0_30_56
*1794 FILLER_0_30_60
*1795 FILLER_0_30_68
*1796 FILLER_0_30_80
*1797 FILLER_0_31_103
*1798 FILLER_0_31_108
*1799 FILLER_0_31_113
*1800 FILLER_0_31_123
*1801 FILLER_0_31_136
*1802 FILLER_0_31_147
*1803 FILLER_0_31_158
*1804 FILLER_0_31_19
*1805 FILLER_0_31_193
*1806 FILLER_0_31_197
*1807 FILLER_0_31_209
*1808 FILLER_0_31_215
*1809 FILLER_0_31_23
*1810 FILLER_0_31_257
*1811 FILLER_0_31_266
*1812 FILLER_0_31_279
*1813 FILLER_0_31_281
*1814 FILLER_0_31_292
*1815 FILLER_0_31_304
*1816 FILLER_0_31_314
*1817 FILLER_0_31_334