*SPEF "ieee 1481-1999"
*DESIGN "tt_um_scorbetta_goa"
*DATE "13:08:25 Friday April 12, 2024"
*VENDOR "The OpenROAD Project"
*PROGRAM "OpenROAD"
*VERSION "0889970d1790a2617e69f253221b8bd7626e51dc"
*DESIGN_FLOW "NAME_SCOPE LOCAL" "PIN_CAP NONE"
*DIVIDER /
*DELIMITER :
*BUS_DELIMITER []
*T_UNIT 1 NS
*C_UNIT 1 PF
*R_UNIT 1 OHM
*L_UNIT 1 HENRY

*NAME_MAP
*3 clk
*4 ena
*5 rst_n
*6 ui_in[0]
*7 ui_in[1]
*8 ui_in[2]
*9 ui_in[3]
*10 ui_in[4]
*11 ui_in[5]
*12 ui_in[6]
*13 ui_in[7]
*14 uio_in[0]
*15 uio_in[1]
*16 uio_in[2]
*17 uio_in[3]
*18 uio_in[4]
*19 uio_in[5]
*20 uio_in[6]
*21 uio_in[7]
*22 net8
*23 net9
*24 net20
*25 net21
*26 net10
*27 net11
*28 net12
*29 net13
*30 net14
*31 net15
*32 uio_out[2]
*33 uio_out[3]
*34 net16
*35 net17
*36 net18
*37 net19
*38 uo_out[0]
*39 uo_out[1]
*40 uo_out[2]
*41 uo_out[3]
*42 uo_out[4]
*43 uo_out[5]
*44 uo_out[6]
*45 uo_out[7]
*46 NEURON_WRAPPER\.DBUG_ACT_DONE
*47 NEURON_WRAPPER\.DBUG_ACT_OVERFLOW
*48 NEURON_WRAPPER\.DBUG_ADDR_COUNT_EN
*49 NEURON_WRAPPER\.DBUG_ADD_DONE
*50 NEURON_WRAPPER\.DBUG_BIAS_ADD_DONE
*51 NEURON_WRAPPER\.DBUG_DATA_COUNT_EN
*52 NEURON_WRAPPER\.DBUG_MUL_DONE
*53 NEURON_WRAPPER\.DBUG_MUL_START
*54 NEURON_WRAPPER\.DBUG_NI_RREQ
*55 NEURON_WRAPPER\.DBUG_NI_WREQ
*56 NEURON_WRAPPER\.DBUG_READY
*57 NEURON_WRAPPER\.DBUG_RSTN_I
*58 NEURON_WRAPPER\.DBUG_RVALID
*59 NEURON_WRAPPER\.DBUG_SOFT_RESET
*60 NEURON_WRAPPER\.DBUG_VALID_OUT_LATCH
*61 NEURON_WRAPPER\.DBUG_WACK
*62 NEURON_WRAPPER\.NEURON\.ADD_BIAS_RESULT\[0\]
*63 NEURON_WRAPPER\.NEURON\.ADD_BIAS_RESULT\[1\]
*64 NEURON_WRAPPER\.NEURON\.ADD_BIAS_RESULT\[2\]
*65 NEURON_WRAPPER\.NEURON\.ADD_BIAS_RESULT\[3\]
*66 NEURON_WRAPPER\.NEURON\.ADD_BIAS_RESULT\[4\]
*67 NEURON_WRAPPER\.NEURON\.ADD_BIAS_RESULT\[5\]
*68 NEURON_WRAPPER\.NEURON\.ADD_BIAS_RESULT\[6\]
*69 NEURON_WRAPPER\.NEURON\.ADD_BIAS_RESULT\[7\]
*70 NEURON_WRAPPER\.NEURON\.ADD_RESULT\[0\]
*71 NEURON_WRAPPER\.NEURON\.ADD_RESULT\[1\]
*72 NEURON_WRAPPER\.NEURON\.ADD_RESULT\[2\]
*73 NEURON_WRAPPER\.NEURON\.ADD_RESULT\[3\]
*74 NEURON_WRAPPER\.NEURON\.ADD_RESULT\[4\]
*75 NEURON_WRAPPER\.NEURON\.ADD_RESULT\[5\]
*76 NEURON_WRAPPER\.NEURON\.ADD_RESULT\[6\]
*77 NEURON_WRAPPER\.NEURON\.ADD_RESULT\[7\]
*78 NEURON_WRAPPER\.NEURON\.BIAS\[0\]
*79 NEURON_WRAPPER\.NEURON\.BIAS\[1\]
*80 NEURON_WRAPPER\.NEURON\.BIAS\[2\]
*81 NEURON_WRAPPER\.NEURON\.BIAS\[3\]
*82 NEURON_WRAPPER\.NEURON\.BIAS\[4\]
*83 NEURON_WRAPPER\.NEURON\.BIAS\[5\]
*84 NEURON_WRAPPER\.NEURON\.BIAS\[6\]
*85 NEURON_WRAPPER\.NEURON\.BIAS\[7\]
*86 NEURON_WRAPPER\.NEURON\.FP_ACT\.ABS_ENGINE\.ADDER\.VALID_OUT
*87 NEURON_WRAPPER\.NEURON\.FP_ACT\.ABS_ENGINE\.ADDER\.VALUE_OUT\[0\]
*88 NEURON_WRAPPER\.NEURON\.FP_ACT\.ABS_ENGINE\.ADDER\.VALUE_OUT\[1\]
*89 NEURON_WRAPPER\.NEURON\.FP_ACT\.ABS_ENGINE\.ADDER\.VALUE_OUT\[2\]
*90 NEURON_WRAPPER\.NEURON\.FP_ACT\.ABS_ENGINE\.ADDER\.VALUE_OUT\[3\]
*91 NEURON_WRAPPER\.NEURON\.FP_ACT\.ABS_ENGINE\.ADDER\.VALUE_OUT\[4\]
*92 NEURON_WRAPPER\.NEURON\.FP_ACT\.ABS_ENGINE\.ADDER\.VALUE_OUT\[5\]
*93 NEURON_WRAPPER\.NEURON\.FP_ACT\.ABS_ENGINE\.ADDER\.VALUE_OUT\[6\]
*94 NEURON_WRAPPER\.NEURON\.FP_ACT\.ABS_ENGINE\.ADDER\.VALUE_OUT\[7\]
*95 NEURON_WRAPPER\.NEURON\.FP_ACT\.ABS_ENGINE\.VALID_OUT
*96 NEURON_WRAPPER\.NEURON\.FP_ACT\.ABS_ENGINE\.VALUE_OUT\[0\]
*97 NEURON_WRAPPER\.NEURON\.FP_ACT\.ABS_ENGINE\.VALUE_OUT\[1\]
*98 NEURON_WRAPPER\.NEURON\.FP_ACT\.ABS_ENGINE\.VALUE_OUT\[2\]
*99 NEURON_WRAPPER\.NEURON\.FP_ACT\.ABS_ENGINE\.VALUE_OUT\[3\]
*100 NEURON_WRAPPER\.NEURON\.FP_ACT\.ABS_ENGINE\.VALUE_OUT\[4\]
*101 NEURON_WRAPPER\.NEURON\.FP_ACT\.ABS_ENGINE\.VALUE_OUT\[5\]
*102 NEURON_WRAPPER\.NEURON\.FP_ACT\.ABS_ENGINE\.VALUE_OUT\[6\]
*103 NEURON_WRAPPER\.NEURON\.FP_ACT\.ABS_ENGINE\.VALUE_OUT\[7\]
*104 NEURON_WRAPPER\.NEURON\.FP_ACT\.LINE_ADD\.VALID_IN
*105 NEURON_WRAPPER\.NEURON\.FP_ACT\.LINE_ADD\.VALID_OUT
*106 NEURON_WRAPPER\.NEURON\.FP_ACT\.LINE_ADD\.VALUE_A_IN\[0\]
*107 NEURON_WRAPPER\.NEURON\.FP_ACT\.LINE_ADD\.VALUE_A_IN\[1\]
*108 NEURON_WRAPPER\.NEURON\.FP_ACT\.LINE_ADD\.VALUE_A_IN\[2\]
*109 NEURON_WRAPPER\.NEURON\.FP_ACT\.LINE_ADD\.VALUE_A_IN\[3\]
*110 NEURON_WRAPPER\.NEURON\.FP_ACT\.LINE_ADD\.VALUE_A_IN\[4\]
*111 NEURON_WRAPPER\.NEURON\.FP_ACT\.LINE_ADD\.VALUE_A_IN\[5\]
*112 NEURON_WRAPPER\.NEURON\.FP_ACT\.LINE_ADD\.VALUE_A_IN\[6\]
*113 NEURON_WRAPPER\.NEURON\.FP_ACT\.LINE_ADD\.VALUE_A_IN\[7\]
*114 NEURON_WRAPPER\.NEURON\.FP_ACT\.LINE_ADD\.VALUE_OUT\[0\]
*115 NEURON_WRAPPER\.NEURON\.FP_ACT\.LINE_ADD\.VALUE_OUT\[1\]
*116 NEURON_WRAPPER\.NEURON\.FP_ACT\.LINE_ADD\.VALUE_OUT\[2\]
*117 NEURON_WRAPPER\.NEURON\.FP_ACT\.LINE_ADD\.VALUE_OUT\[3\]
*118 NEURON_WRAPPER\.NEURON\.FP_ACT\.LINE_ADD\.VALUE_OUT\[4\]
*119 NEURON_WRAPPER\.NEURON\.FP_ACT\.LINE_ADD\.VALUE_OUT\[5\]
*120 NEURON_WRAPPER\.NEURON\.FP_ACT\.LINE_ADD\.VALUE_OUT\[6\]
*121 NEURON_WRAPPER\.NEURON\.FP_ACT\.LINE_ADD\.VALUE_OUT\[7\]
*122 NEURON_WRAPPER\.NEURON\.FP_ACT\.SIGN_ADJUST\.ADDER\.VALID_OUT
*123 NEURON_WRAPPER\.NEURON\.FP_ACT\.SIGN_ADJUST\.ADDER\.VALUE_OUT\[0\]
*124 NEURON_WRAPPER\.NEURON\.FP_ACT\.SIGN_ADJUST\.ADDER\.VALUE_OUT\[1\]
*125 NEURON_WRAPPER\.NEURON\.FP_ACT\.SIGN_ADJUST\.ADDER\.VALUE_OUT\[2\]
*126 NEURON_WRAPPER\.NEURON\.FP_ACT\.SIGN_ADJUST\.ADDER\.VALUE_OUT\[3\]
*127 NEURON_WRAPPER\.NEURON\.FP_ACT\.SIGN_ADJUST\.ADDER\.VALUE_OUT\[4\]
*128 NEURON_WRAPPER\.NEURON\.FP_ACT\.SIGN_ADJUST\.ADDER\.VALUE_OUT\[5\]
*129 NEURON_WRAPPER\.NEURON\.FP_ACT\.SIGN_ADJUST\.ADDER\.VALUE_OUT\[6\]
*130 NEURON_WRAPPER\.NEURON\.FP_ACT\.SIGN_ADJUST\.ADDER\.VALUE_OUT\[7\]
*131 NEURON_WRAPPER\.NEURON\.FP_ACT\.SIGN_ADJUST\.OVERFLOW
*132 NEURON_WRAPPER\.NEURON\.FP_ACT\.SIGN_ADJUST\.VALUE_OUT\[0\]
*133 NEURON_WRAPPER\.NEURON\.FP_ACT\.SIGN_ADJUST\.VALUE_OUT\[1\]
*134 NEURON_WRAPPER\.NEURON\.FP_ACT\.SIGN_ADJUST\.VALUE_OUT\[2\]
*135 NEURON_WRAPPER\.NEURON\.FP_ACT\.SIGN_ADJUST\.VALUE_OUT\[3\]
*136 NEURON_WRAPPER\.NEURON\.FP_ACT\.SIGN_ADJUST\.VALUE_OUT\[4\]
*137 NEURON_WRAPPER\.NEURON\.FP_ACT\.SIGN_ADJUST\.VALUE_OUT\[5\]
*138 NEURON_WRAPPER\.NEURON\.FP_ACT\.SIGN_ADJUST\.VALUE_OUT\[6\]
*139 NEURON_WRAPPER\.NEURON\.FP_ACT\.SIGN_ADJUST\.VALUE_OUT\[7\]
*140 NEURON_WRAPPER\.NEURON\.FP_ADD\.VALUE_B_IN\[0\]
*141 NEURON_WRAPPER\.NEURON\.FP_ADD\.VALUE_B_IN\[1\]
*142 NEURON_WRAPPER\.NEURON\.FP_ADD\.VALUE_B_IN\[2\]
*143 NEURON_WRAPPER\.NEURON\.FP_ADD\.VALUE_B_IN\[3\]
*144 NEURON_WRAPPER\.NEURON\.FP_ADD\.VALUE_B_IN\[4\]
*145 NEURON_WRAPPER\.NEURON\.FP_ADD\.VALUE_B_IN\[5\]
*146 NEURON_WRAPPER\.NEURON\.FP_ADD\.VALUE_B_IN\[6\]
*147 NEURON_WRAPPER\.NEURON\.FP_ADD\.VALUE_B_IN\[7\]
*148 NEURON_WRAPPER\.NEURON\.FP_BIAS\.VALID_IN
*149 NEURON_WRAPPER\.NEURON\.FP_MUL\.VALUE_A_IN\[0\]
*150 NEURON_WRAPPER\.NEURON\.FP_MUL\.VALUE_A_IN\[1\]
*151 NEURON_WRAPPER\.NEURON\.FP_MUL\.VALUE_A_IN\[2\]
*152 NEURON_WRAPPER\.NEURON\.FP_MUL\.VALUE_A_IN\[3\]
*153 NEURON_WRAPPER\.NEURON\.FP_MUL\.VALUE_A_IN\[4\]
*154 NEURON_WRAPPER\.NEURON\.FP_MUL\.VALUE_A_IN\[5\]
*155 NEURON_WRAPPER\.NEURON\.FP_MUL\.VALUE_A_IN\[6\]
*156 NEURON_WRAPPER\.NEURON\.FP_MUL\.VALUE_A_IN\[7\]
*157 NEURON_WRAPPER\.NEURON\.NCE\.ACC_MUX
*158 NEURON_WRAPPER\.NEURON\.NCE\.BUSY
*159 NEURON_WRAPPER\.NEURON\.NCE\.WEIGHTS\[0\]
*160 NEURON_WRAPPER\.NEURON\.NCE\.WEIGHTS\[10\]
*161 NEURON_WRAPPER\.NEURON\.NCE\.WEIGHTS\[11\]
*162 NEURON_WRAPPER\.NEURON\.NCE\.WEIGHTS\[12\]
*163 NEURON_WRAPPER\.NEURON\.NCE\.WEIGHTS\[13\]
*164 NEURON_WRAPPER\.NEURON\.NCE\.WEIGHTS\[14\]
*165 NEURON_WRAPPER\.NEURON\.NCE\.WEIGHTS\[15\]
*166 NEURON_WRAPPER\.NEURON\.NCE\.WEIGHTS\[1\]
*167 NEURON_WRAPPER\.NEURON\.NCE\.WEIGHTS\[2\]
*168 NEURON_WRAPPER\.NEURON\.NCE\.WEIGHTS\[3\]
*169 NEURON_WRAPPER\.NEURON\.NCE\.WEIGHTS\[4\]
*170 NEURON_WRAPPER\.NEURON\.NCE\.WEIGHTS\[5\]
*171 NEURON_WRAPPER\.NEURON\.NCE\.WEIGHTS\[6\]
*172 NEURON_WRAPPER\.NEURON\.NCE\.WEIGHTS\[7\]
*173 NEURON_WRAPPER\.NEURON\.NCE\.WEIGHTS\[8\]
*174 NEURON_WRAPPER\.NEURON\.NCE\.WEIGHTS\[9\]
*175 NEURON_WRAPPER\.NEURON\.NCE\.delayed_rstn\[0\]
*176 NEURON_WRAPPER\.NEURON\.NCE\.delayed_rstn\[1\]
*177 NEURON_WRAPPER\.NEURON\.NCE\.delayed_rstn\[2\]
*178 NEURON_WRAPPER\.NEURON\.NCE\.delayed_rstn\[3\]
*179 NEURON_WRAPPER\.NEURON\.NCE\.valid_in_edges\[0\]
*180 NEURON_WRAPPER\.NEURON\.NCE\.valid_in_edges\[1\]
*181 NEURON_WRAPPER\.REGPOOL\.ADD_RESULT_REG\.REG\.VALUE_OUT\[0\]
*182 NEURON_WRAPPER\.REGPOOL\.ADD_RESULT_REG\.REG\.VALUE_OUT\[1\]
*183 NEURON_WRAPPER\.REGPOOL\.ADD_RESULT_REG\.REG\.VALUE_OUT\[2\]
*184 NEURON_WRAPPER\.REGPOOL\.ADD_RESULT_REG\.REG\.VALUE_OUT\[3\]
*185 NEURON_WRAPPER\.REGPOOL\.ADD_RESULT_REG\.REG\.VALUE_OUT\[4\]
*186 NEURON_WRAPPER\.REGPOOL\.ADD_RESULT_REG\.REG\.VALUE_OUT\[5\]
*187 NEURON_WRAPPER\.REGPOOL\.ADD_RESULT_REG\.REG\.VALUE_OUT\[6\]
*188 NEURON_WRAPPER\.REGPOOL\.ADD_RESULT_REG\.REG\.VALUE_OUT\[7\]
*189 NEURON_WRAPPER\.REGPOOL\.BIAS_ADD_RESULT_REG\.REG\.VALUE_OUT\[0\]
*190 NEURON_WRAPPER\.REGPOOL\.BIAS_ADD_RESULT_REG\.REG\.VALUE_OUT\[1\]
*191 NEURON_WRAPPER\.REGPOOL\.BIAS_ADD_RESULT_REG\.REG\.VALUE_OUT\[2\]
*192 NEURON_WRAPPER\.REGPOOL\.BIAS_ADD_RESULT_REG\.REG\.VALUE_OUT\[3\]
*193 NEURON_WRAPPER\.REGPOOL\.BIAS_ADD_RESULT_REG\.REG\.VALUE_OUT\[4\]
*194 NEURON_WRAPPER\.REGPOOL\.BIAS_ADD_RESULT_REG\.REG\.VALUE_OUT\[5\]
*195 NEURON_WRAPPER\.REGPOOL\.BIAS_ADD_RESULT_REG\.REG\.VALUE_OUT\[6\]
*196 NEURON_WRAPPER\.REGPOOL\.BIAS_ADD_RESULT_REG\.REG\.VALUE_OUT\[7\]
*197 NEURON_WRAPPER\.REGPOOL\.BIAS_REG\.VALUE_IN\[0\]
*198 NEURON_WRAPPER\.REGPOOL\.BIAS_REG\.VALUE_IN\[1\]
*199 NEURON_WRAPPER\.REGPOOL\.BIAS_REG\.VALUE_IN\[2\]
*200 NEURON_WRAPPER\.REGPOOL\.BIAS_REG\.VALUE_IN\[3\]
*201 NEURON_WRAPPER\.REGPOOL\.BIAS_REG\.VALUE_IN\[4\]
*202 NEURON_WRAPPER\.REGPOOL\.BIAS_REG\.VALUE_IN\[5\]
*203 NEURON_WRAPPER\.REGPOOL\.BIAS_REG\.VALUE_IN\[6\]
*204 NEURON_WRAPPER\.REGPOOL\.BIAS_REG\.VALUE_IN\[7\]
*205 NEURON_WRAPPER\.REGPOOL\.BIAS_REG\.WEN
*206 NEURON_WRAPPER\.REGPOOL\.CTRL_REG\.VALUE_OUT\[1\]
*207 NEURON_WRAPPER\.REGPOOL\.CTRL_REG\.VALUE_OUT\[2\]
*208 NEURON_WRAPPER\.REGPOOL\.CTRL_REG\.VALUE_OUT\[3\]
*209 NEURON_WRAPPER\.REGPOOL\.CTRL_REG\.VALUE_OUT\[4\]
*210 NEURON_WRAPPER\.REGPOOL\.CTRL_REG\.VALUE_OUT\[5\]
*211 NEURON_WRAPPER\.REGPOOL\.CTRL_REG\.VALUE_OUT\[6\]
*212 NEURON_WRAPPER\.REGPOOL\.CTRL_REG\.VALUE_OUT\[7\]
*213 NEURON_WRAPPER\.REGPOOL\.CTRL_REG\.WEN
*214 NEURON_WRAPPER\.REGPOOL\.MULT_RESULT_REG\.REG\.VALUE_OUT\[0\]
*215 NEURON_WRAPPER\.REGPOOL\.MULT_RESULT_REG\.REG\.VALUE_OUT\[1\]
*216 NEURON_WRAPPER\.REGPOOL\.MULT_RESULT_REG\.REG\.VALUE_OUT\[2\]
*217 NEURON_WRAPPER\.REGPOOL\.MULT_RESULT_REG\.REG\.VALUE_OUT\[3\]
*218 NEURON_WRAPPER\.REGPOOL\.MULT_RESULT_REG\.REG\.VALUE_OUT\[4\]
*219 NEURON_WRAPPER\.REGPOOL\.MULT_RESULT_REG\.REG\.VALUE_OUT\[5\]
*220 NEURON_WRAPPER\.REGPOOL\.MULT_RESULT_REG\.REG\.VALUE_OUT\[6\]
*221 NEURON_WRAPPER\.REGPOOL\.MULT_RESULT_REG\.REG\.VALUE_OUT\[7\]
*222 NEURON_WRAPPER\.REGPOOL\.RADDR\[0\]
*223 NEURON_WRAPPER\.REGPOOL\.RADDR\[1\]
*224 NEURON_WRAPPER\.REGPOOL\.RADDR\[2\]
*225 NEURON_WRAPPER\.REGPOOL\.RADDR\[3\]
*226 NEURON_WRAPPER\.REGPOOL\.RESULT_REG\.REG\.VALUE_OUT\[0\]
*227 NEURON_WRAPPER\.REGPOOL\.RESULT_REG\.REG\.VALUE_OUT\[1\]
*228 NEURON_WRAPPER\.REGPOOL\.RESULT_REG\.REG\.VALUE_OUT\[2\]
*229 NEURON_WRAPPER\.REGPOOL\.RESULT_REG\.REG\.VALUE_OUT\[3\]
*230 NEURON_WRAPPER\.REGPOOL\.RESULT_REG\.REG\.VALUE_OUT\[4\]
*231 NEURON_WRAPPER\.REGPOOL\.RESULT_REG\.REG\.VALUE_OUT\[5\]
*232 NEURON_WRAPPER\.REGPOOL\.RESULT_REG\.REG\.VALUE_OUT\[6\]
*233 NEURON_WRAPPER\.REGPOOL\.RESULT_REG\.REG\.VALUE_OUT\[7\]
*234 NEURON_WRAPPER\.REGPOOL\.STATUS_REG\.REG\.VALUE_OUT\[0\]
*235 NEURON_WRAPPER\.REGPOOL\.STATUS_REG\.REG\.VALUE_OUT\[1\]
*236 NEURON_WRAPPER\.REGPOOL\.VALUE_IN_REG\.WEN
*237 NEURON_WRAPPER\.REGPOOL\.WEIGHT_0_REG\.WEN
*238 NEURON_WRAPPER\.REGPOOL\.WEIGHT_1_REG\.WEN
*239 NEURON_WRAPPER\.SCI_ACK
*240 NEURON_WRAPPER\.SCI_RESP
*241 NEURON_WRAPPER\.SCI_SLAVE\.ADDRESS_BUFFER\.SIN
*242 NEURON_WRAPPER\.SCI_SLAVE\.ADDR_COUNTER\.VALUE\[0\]
*243 NEURON_WRAPPER\.SCI_SLAVE\.ADDR_COUNTER\.VALUE\[1\]
*244 NEURON_WRAPPER\.SCI_SLAVE\.DATA_COUNTER\.VALUE\[0\]
*245 NEURON_WRAPPER\.SCI_SLAVE\.DATA_COUNTER\.VALUE\[1\]
*246 NEURON_WRAPPER\.SCI_SLAVE\.DATA_COUNTER\.VALUE\[2\]
*247 NEURON_WRAPPER\.SCI_SLAVE\.NEW_REQ_DETECTOR\.SAMPLE_IN
*248 NEURON_WRAPPER\.SCI_SLAVE\.NEW_REQ_DETECTOR\.sample_in
*249 NEURON_WRAPPER\.SCI_SLAVE\.RDATA_BUFFER\.genblk1\[1\]\.DFFEN\.Q
*250 NEURON_WRAPPER\.SCI_SLAVE\.RDATA_BUFFER\.genblk1\[2\]\.DFFEN\.Q
*251 NEURON_WRAPPER\.SCI_SLAVE\.RDATA_BUFFER\.genblk1\[3\]\.DFFEN\.Q
*252 NEURON_WRAPPER\.SCI_SLAVE\.RDATA_BUFFER\.genblk1\[4\]\.DFFEN\.Q
*253 NEURON_WRAPPER\.SCI_SLAVE\.RDATA_BUFFER\.genblk1\[5\]\.DFFEN\.Q
*254 NEURON_WRAPPER\.SCI_SLAVE\.RDATA_BUFFER\.genblk1\[6\]\.DFFEN\.Q
*255 NEURON_WRAPPER\.SCI_SLAVE\.RDATA_BUFFER\.genblk1\[7\]\.DFFEN\.Q
*256 NEURON_WRAPPER\.SCI_SLAVE\.curr_state\[0\]
*257 NEURON_WRAPPER\.SCI_SLAVE\.curr_state\[1\]
*258 NEURON_WRAPPER\.SCI_SLAVE\.curr_state\[4\]
*259 NEURON_WRAPPER\.SCI_SLAVE\.wnr
*260 NEURON_WRAPPER\.START_EDGE\.sample_in
*261 NEURON_WRAPPER\.VALID_SOLUTION_LATCH\.REG\.REG\.VALUE_OUT
*262 _0000_
*263 _0001_
*264 _0002_
*265 _0003_
*266 _0004_
*267 _0005_
*268 _0006_
*269 _0007_
*270 _0008_
*271 _0009_
*272 _0010_
*273 _0011_
*274 _0012_
*275 _0013_
*276 _0014_
*277 _0015_
*278 _0016_
*279 _0017_
*280 _0018_
*281 _0019_
*282 _0020_
*283 _0021_
*284 _0022_
*285 _0023_
*286 _0024_
*287 _0025_
*288 _0026_
*289 _0027_
*290 _0028_
*291 _0029_
*292 _0030_
*293 _0031_
*294 _0032_
*295 _0033_
*296 _0034_
*297 _0035_
*298 _0036_
*299 _0037_
*300 _0038_
*301 _0039_
*302 _0040_
*303 _0041_
*304 _0042_
*305 _0043_
*306 _0044_
*307 _0045_
*308 _0046_
*309 _0047_
*310 _0048_
*311 _0049_
*312 _0050_
*313 _0051_
*314 _0052_
*315 _0053_
*316 _0054_
*317 _0055_
*318 _0056_
*319 _0057_
*320 _0058_
*321 _0059_
*322 _0060_
*323 _0061_
*324 _0062_
*325 _0063_
*326 _0064_
*327 _0065_
*328 _0066_
*329 _0067_
*330 _0068_
*331 _0069_
*332 _0070_
*333 _0071_
*334 _0072_
*335 _0073_
*336 _0074_
*337 _0075_
*338 _0076_
*339 _0077_
*340 _0078_
*341 _0079_
*342 _0080_
*343 _0081_
*344 _0082_
*345 _0083_
*346 _0084_
*347 _0085_
*348 _0086_
*349 _0087_
*350 _0088_
*351 _0089_
*352 _0090_
*353 _0091_
*354 _0092_
*355 _0093_
*356 _0094_
*357 _0095_
*358 _0096_
*359 _0097_
*360 _0098_
*361 _0099_
*362 _0100_
*363 _0101_
*364 _0102_
*365 _0103_
*366 _0104_
*367 _0105_
*368 _0106_
*369 _0107_
*370 _0108_
*371 _0109_
*372 _0110_
*373 _0111_
*374 _0112_
*375 _0113_
*376 _0114_
*377 _0115_
*378 _0116_
*379 _0117_
*380 _0118_
*381 _0119_
*382 _0120_
*383 _0121_
*384 _0122_
*385 _0123_
*386 _0124_
*387 _0125_
*388 _0126_
*389 _0127_
*390 _0128_
*391 _0129_
*392 _0130_
*393 _0131_
*394 _0132_
*395 _0133_
*396 _0134_
*397 _0135_
*398 _0136_
*399 _0137_
*400 _0138_
*401 _0139_
*402 _0140_
*403 _0141_
*404 _0142_
*405 _0143_
*406 _0144_
*407 _0145_
*408 _0146_
*409 _0147_
*410 _0148_
*411 _0149_
*412 _0150_
*413 _0151_
*414 _0152_
*415 _0153_
*416 _0154_
*417 _0155_
*418 _0156_
*419 _0157_
*420 _0158_
*421 _0159_
*422 _0160_
*423 _0161_
*424 _0162_
*425 _0163_
*426 _0164_
*427 _0165_
*428 _0166_
*429 _0167_
*430 _0168_
*431 _0169_
*432 _0170_
*433 _0171_
*434 _0172_
*435 _0173_
*436 _0174_
*437 _0175_
*438 _0176_
*439 _0177_
*440 _0178_
*441 _0179_
*442 _0180_
*443 _0181_
*444 _0182_
*445 _0183_
*446 _0184_
*447 _0185_
*448 _0186_
*449 _0187_
*450 _0188_
*451 _0189_
*452 _0190_
*453 _0191_
*454 _0192_
*455 _0193_
*456 _0194_
*457 _0195_
*458 _0196_
*459 _0197_
*460 _0198_
*461 _0199_
*462 _0200_
*463 _0201_
*464 _0202_
*465 _0203_
*466 _0204_
*467 _0205_
*468 _0206_
*469 _0207_
*470 _0208_
*471 _0209_
*472 _0210_
*473 _0211_
*474 _0212_
*475 _0213_
*476 _0214_
*477 _0215_
*478 _0216_
*479 _0217_
*480 _0218_
*481 _0219_
*482 _0220_
*483 _0221_
*484 _0222_
*485 _0223_
*486 _0224_
*487 _0225_
*488 _0226_
*489 _0227_
*490 _0228_
*491 _0229_
*492 _0230_
*493 _0231_
*494 _0232_
*495 _0233_
*496 _0234_
*497 _0235_
*498 _0236_
*499 _0237_
*500 _0238_
*501 _0239_
*502 _0240_
*503 _0241_
*504 _0242_
*505 _0243_
*506 _0244_
*507 _0245_
*508 _0246_
*509 _0247_
*510 _0248_
*511 _0249_
*512 _0250_
*513 _0251_
*514 _0252_
*515 _0253_
*516 _0254_
*517 _0255_
*518 _0256_
*519 _0257_
*520 _0258_
*521 _0259_
*522 _0260_
*523 _0261_
*524 _0262_
*525 _0263_
*526 _0264_
*527 _0265_
*528 _0266_
*529 _0267_
*530 _0268_
*531 _0269_
*532 _0270_
*533 _0271_
*534 _0272_
*535 _0273_
*536 _0274_
*537 _0275_
*538 _0276_
*539 _0277_
*540 _0278_
*541 _0279_
*542 _0280_
*543 _0281_
*544 _0282_
*545 _0283_
*546 _0284_
*547 _0285_
*548 _0286_
*549 _0287_
*550 _0288_
*551 _0289_
*552 _0290_
*553 _0291_
*554 _0292_
*555 _0293_
*556 _0294_
*557 _0295_
*558 _0296_
*559 _0297_
*560 _0298_
*561 _0299_
*562 _0300_
*563 _0301_
*564 _0302_
*565 _0303_
*566 _0304_
*567 _0305_
*568 _0306_
*569 _0307_
*570 _0308_
*571 _0309_
*572 _0310_
*573 _0311_
*574 _0312_
*575 _0313_
*576 _0314_
*577 _0315_
*578 _0316_
*579 _0317_
*580 _0318_
*581 _0319_
*582 _0320_
*583 _0321_
*584 _0322_
*585 _0323_
*586 _0324_
*587 _0325_
*588 _0326_
*589 _0327_
*590 _0328_
*591 _0329_
*592 _0330_
*593 _0331_
*594 _0332_
*595 _0333_
*596 _0334_
*597 _0335_
*598 _0336_
*599 _0337_
*600 _0338_
*601 _0339_
*602 _0340_
*603 _0341_
*604 _0342_
*605 _0343_
*606 _0344_
*607 _0345_
*608 _0346_
*609 _0347_
*610 _0348_
*611 _0349_
*612 _0350_
*613 _0351_
*614 _0352_
*615 _0353_
*616 _0354_
*617 _0355_
*618 _0356_
*619 _0357_
*620 _0358_
*621 _0359_
*622 _0360_
*623 _0361_
*624 _0362_
*625 _0363_
*626 _0364_
*627 _0365_
*628 _0366_
*629 _0367_
*630 _0368_
*631 _0369_
*632 _0370_
*633 _0371_
*634 _0372_
*635 _0373_
*636 _0374_
*637 _0375_
*638 _0376_
*639 _0377_
*640 _0378_
*641 _0379_
*642 _0380_
*643 _0381_
*644 _0382_
*645 _0383_
*646 _0384_
*647 _0385_
*648 _0386_
*649 _0387_
*650 _0388_
*651 _0389_
*652 _0390_
*653 _0391_
*654 _0392_
*655 _0393_
*656 _0394_
*657 _0395_
*658 _0396_
*659 _0397_
*660 _0398_
*661 _0399_
*662 _0400_
*663 _0401_
*664 _0402_
*665 _0403_
*666 _0404_
*667 _0405_
*668 _0406_
*669 _0407_
*670 _0408_
*671 _0409_
*672 _0410_
*673 _0411_
*674 _0412_
*675 _0413_
*676 _0414_
*677 _0415_
*678 _0416_
*679 _0417_
*680 _0418_
*681 _0419_
*682 _0420_
*683 _0421_
*684 _0422_
*685 _0423_
*686 _0424_
*687 _0425_
*688 _0426_
*689 _0427_
*690 _0428_
*691 _0429_
*692 _0430_
*693 _0431_
*694 _0432_
*695 _0433_
*696 _0434_
*697 _0435_
*698 _0436_
*699 _0437_
*700 _0438_
*701 _0439_
*702 _0440_
*703 _0441_
*704 _0442_
*705 _0443_
*706 _0444_
*707 _0445_
*708 _0446_
*709 _0447_
*710 _0448_
*711 _0449_
*712 _0450_
*713 _0451_
*714 _0452_
*715 _0453_
*716 _0454_
*717 _0455_
*718 _0456_
*719 _0457_
*720 _0458_
*721 _0459_
*722 _0460_
*723 _0461_
*724 _0462_
*725 _0463_
*726 _0464_
*727 _0465_
*728 _0466_
*729 _0467_
*730 _0468_
*731 _0469_
*732 _0470_
*733 _0471_
*734 _0472_
*735 _0473_
*736 _0474_
*737 _0475_
*738 _0476_
*739 _0477_
*740 _0478_
*741 _0479_
*742 _0480_
*743 _0481_
*744 _0482_
*745 _0483_
*746 _0484_
*747 _0485_
*748 _0486_
*749 _0487_
*750 _0488_
*751 _0489_
*752 _0490_
*753 _0491_
*754 _0492_
*755 _0493_
*756 _0494_
*757 _0495_
*758 _0496_
*759 _0497_
*760 _0498_
*761 _0499_
*762 _0500_
*763 _0501_
*764 _0502_
*765 _0503_
*766 _0504_
*767 _0505_
*768 _0506_
*769 _0507_
*770 _0508_
*771 _0509_
*772 _0510_
*773 _0511_
*774 _0512_
*775 _0513_
*776 _0514_
*777 _0515_
*778 _0516_
*779 _0517_
*780 _0518_
*781 _0519_
*782 _0520_
*783 _0521_
*784 _0522_
*785 _0523_
*786 _0524_
*787 _0525_
*788 _0526_
*789 _0527_
*790 _0528_
*791 _0529_
*792 _0530_
*793 _0531_
*794 _0532_
*795 _0533_
*796 _0534_
*797 _0535_
*798 _0536_
*799 _0537_
*800 _0538_
*801 _0539_
*802 _0540_
*803 _0541_
*804 _0542_
*805 _0543_
*806 _0544_
*807 _0545_
*808 _0546_
*809 _0547_
*810 _0548_
*811 _0549_
*812 _0550_
*813 _0551_
*814 _0552_
*815 _0553_
*816 _0554_
*817 _0555_
*818 _0556_
*819 _0557_
*820 _0558_
*821 _0559_
*822 _0560_
*823 _0561_
*824 _0562_
*825 _0563_
*826 _0564_
*827 _0565_
*828 _0566_
*829 _0567_
*830 _0568_
*831 _0569_
*832 _0570_
*833 _0571_
*834 _0572_
*835 _0573_
*836 _0574_
*837 _0575_
*838 _0576_
*839 _0577_
*840 _0578_
*841 _0579_
*842 _0580_
*843 _0581_
*844 _0582_
*845 _0583_
*846 _0584_
*847 _0585_
*848 _0586_
*849 _0587_
*850 _0588_
*851 _0589_
*852 _0590_
*853 _0591_
*854 _0592_
*855 _0593_
*856 _0594_
*857 _0595_
*858 _0596_
*859 _0597_
*860 _0598_
*861 _0599_
*862 _0600_
*863 _0601_
*864 _0602_
*865 _0603_
*866 _0604_
*867 _0605_
*868 _0606_
*869 _0607_
*870 _0608_
*871 _0609_
*872 _0610_
*873 _0611_
*874 _0612_
*875 _0613_
*876 _0614_
*877 _0615_
*878 _0616_
*879 _0617_
*880 _0618_
*881 _0619_
*882 _0620_
*883 _0621_
*884 _0622_
*885 _0623_
*886 _0624_
*887 _0625_
*888 _0626_
*889 _0627_
*890 _0628_
*891 _0629_
*892 _0630_
*893 _0631_
*894 _0632_
*895 _0633_
*896 _0634_
*897 _0635_
*898 _0636_
*899 _0637_
*900 _0638_
*901 _0639_
*902 _0640_
*903 _0641_
*904 _0642_
*905 _0643_
*906 _0644_
*907 _0645_
*908 _0646_
*909 _0647_
*910 _0648_
*911 _0649_
*912 _0650_
*913 _0651_
*914 _0652_
*915 _0653_
*916 _0654_
*917 _0655_
*918 _0656_
*919 _0657_
*920 _0658_
*921 _0659_
*922 _0660_
*923 _0661_
*924 _0662_
*925 _0663_
*926 _0664_
*927 _0665_
*928 _0666_
*929 _0667_
*930 _0668_
*931 _0669_
*932 _0670_
*933 _0671_
*934 _0672_
*935 _0673_
*936 _0674_
*937 _0675_
*938 _0676_
*939 _0677_
*940 _0678_
*941 _0679_
*942 _0680_
*943 _0681_
*944 _0682_
*945 _0683_
*946 _0684_
*947 _0685_
*948 _0686_
*949 _0687_
*950 _0688_
*951 _0689_
*952 _0690_
*953 _0691_
*954 _0692_
*955 _0693_
*956 _0694_
*957 _0695_
*958 _0696_
*959 _0697_
*960 _0698_
*961 _0699_
*962 _0700_
*963 _0701_
*964 _0702_
*965 _0703_
*966 _0704_
*967 _0705_
*968 _0706_
*969 _0707_
*970 _0708_
*971 _0709_
*972 _0710_
*973 _0711_
*974 _0712_
*975 _0713_
*976 _0714_
*977 _0715_
*978 _0716_
*979 _0717_
*980 _0718_
*981 _0719_
*982 _0720_
*983 _0721_
*984 _0722_
*985 _0723_
*986 _0724_
*987 _0725_
*988 _0726_
*989 _0727_
*990 _0728_
*991 _0729_
*992 _0730_
*993 _0731_
*994 _0732_
*995 _0733_
*996 _0734_
*997 _0735_
*998 _0736_
*999 _0737_
*1000 _0738_
*1001 _0739_
*1002 _0740_
*1003 _0741_
*1004 _0742_
*1005 _0743_
*1006 _0744_
*1007 _0745_
*1008 _0746_
*1009 _0747_
*1010 _0748_
*1011 _0749_
*1012 _0750_
*1013 _0751_
*1014 _0752_
*1015 _0753_
*1016 _0754_
*1017 _0755_
*1018 _0756_
*1019 _0757_
*1020 _0758_
*1021 _0759_
*1022 _0760_
*1023 _0761_
*1024 _0762_
*1025 _0763_
*1026 _0764_
*1027 _0765_
*1028 _0766_
*1029 _0767_
*1030 _0768_
*1031 _0769_
*1032 _0770_
*1033 _0771_
*1034 _0772_
*1035 _0773_
*1036 _0774_
*1037 _0775_
*1038 _0776_
*1039 _0777_
*1040 _0778_
*1041 _0779_
*1042 _0780_
*1043 _0781_
*1044 _0782_
*1045 _0783_
*1046 _0784_
*1047 _0785_
*1048 _0786_
*1049 _0787_
*1050 _0788_
*1051 _0789_
*1052 _0790_
*1053 _0791_
*1054 _0792_
*1055 _0793_
*1056 _0794_
*1057 _0795_
*1058 _0796_
*1059 _0797_
*1060 _0798_
*1061 _0799_
*1062 _0800_
*1063 _0801_
*1064 _0802_
*1065 _0803_
*1066 _0804_
*1067 _0805_
*1068 _0806_
*1069 _0807_
*1070 _0808_
*1071 _0809_
*1072 _0810_
*1073 _0811_
*1074 _0812_
*1075 _0813_
*1076 _0814_
*1077 _0815_
*1078 _0816_
*1079 _0817_
*1080 _0818_
*1081 _0819_
*1082 _0820_
*1083 _0821_
*1084 _0822_
*1085 _0823_
*1086 _0824_
*1087 _0825_
*1088 _0826_
*1089 _0827_
*1090 _0828_
*1091 _0829_
*1092 _0830_
*1093 _0831_
*1094 _0832_
*1095 _0833_
*1096 _0834_
*1097 _0835_
*1098 _0836_
*1099 _0837_
*1100 _0838_
*1101 _0839_
*1102 _0840_
*1103 _0841_
*1104 _0842_
*1105 _0843_
*1106 _0844_
*1107 _0845_
*1108 _0846_
*1109 _0847_
*1110 _0848_
*1111 _0849_
*1112 _0850_
*1113 _0851_
*1114 _0852_
*1115 _0853_
*1116 _0854_
*1117 _0855_
*1118 _0856_
*1119 _0857_
*1120 _0858_
*1121 _0859_
*1122 _0860_
*1123 _0861_
*1124 _0862_
*1125 _0863_
*1126 _0864_
*1127 _0865_
*1128 _0866_
*1129 _0867_
*1130 _0868_
*1131 _0869_
*1132 _0870_
*1133 _0871_
*1134 _0872_
*1135 _0873_
*1136 _0874_
*1137 _0875_
*1138 _0876_
*1139 _0877_
*1140 _0878_
*1141 _0879_
*1142 _0880_
*1143 _0881_
*1144 _0882_
*1145 _0883_
*1146 _0884_
*1147 _0885_
*1148 _0886_
*1149 _0887_
*1150 _0888_
*1151 _0889_
*1152 _0890_
*1153 _0891_
*1154 _0892_
*1155 _0893_
*1156 _0894_
*1157 _0895_
*1158 _0896_
*1159 _0897_
*1160 _0898_
*1161 _0899_
*1162 _0900_
*1163 _0901_
*1164 _0902_
*1165 _0903_
*1166 _0904_
*1167 _0905_
*1168 _0906_
*1169 _0907_
*1170 _0908_
*1171 _0909_
*1172 _0910_
*1173 _0911_
*1174 _0912_
*1175 _0913_
*1176 _0914_
*1177 _0915_
*1178 _0916_
*1179 _0917_
*1180 _0918_
*1181 _0919_
*1182 _0920_
*1183 _0921_
*1184 _0922_
*1185 _0923_
*1186 _0924_
*1187 _0925_
*1188 _0926_
*1189 _0927_
*1190 _0928_
*1191 _0929_
*1192 _0930_
*1193 _0931_
*1194 _0932_
*1195 _0933_
*1196 _0934_
*1197 _0935_
*1198 _0936_
*1199 _0937_
*1200 _0938_
*1201 _0939_
*1202 _0940_
*1203 _0941_
*1204 _0942_
*1205 _0943_
*1206 _0944_
*1207 _0945_
*1208 _0946_
*1209 _0947_
*1210 _0948_
*1211 _0949_
*1212 _0950_
*1213 _0951_
*1214 _0952_
*1215 _0953_
*1216 _0954_
*1217 _0955_
*1218 _0956_
*1219 _0957_
*1220 _0958_
*1221 _0959_
*1222 _0960_
*1223 _0961_
*1224 _0962_
*1225 _0963_
*1226 _0964_
*1227 _0965_
*1228 _0966_
*1229 _0967_
*1230 _0968_
*1231 _0969_
*1232 _0970_
*1233 _0971_
*1234 _0972_
*1235 _0973_
*1236 _0974_
*1237 _0975_
*1238 _0976_
*1239 _0977_
*1240 _0978_
*1241 _0979_
*1242 _0980_
*1243 _0981_
*1244 _0982_
*1245 _0983_
*1246 _0984_
*1247 _0985_
*1248 _0986_
*1249 _0987_
*1250 _0988_
*1251 _0989_
*1252 _0990_
*1253 _0991_
*1254 _0992_
*1255 _0993_
*1256 _0994_
*1257 _0995_
*1258 _0996_
*1259 _0997_
*1260 _0998_
*1261 _0999_
*1262 _1000_
*1263 _1001_
*1264 _1002_
*1265 _1003_
*1266 _1004_
*1267 _1005_
*1268 _1006_
*1269 _1007_
*1270 _1008_
*1271 _1009_
*1272 _1010_
*1273 _1011_
*1274 _1012_
*1275 _1013_
*1276 _1014_
*1277 _1015_
*1278 _1016_
*1279 _1017_
*1280 _1018_
*1281 _1019_
*1282 clknet_0_ui_in[0]
*1283 clknet_1_0__leaf_ui_in[0]
*1284 clknet_1_1__leaf_ui_in[0]
*1285 clknet_leaf_0_ui_in[0]
*1286 clknet_leaf_1_ui_in[0]
*1287 clknet_leaf_2_ui_in[0]
*1288 clknet_leaf_3_ui_in[0]
*1289 clknet_leaf_4_ui_in[0]
*1290 clknet_leaf_5_ui_in[0]
*1291 clknet_leaf_6_ui_in[0]
*1292 clknet_leaf_7_ui_in[0]
*1293 clknet_leaf_8_ui_in[0]
*1294 clknet_leaf_9_ui_in[0]
*1295 net1
*1296 net100
*1297 net101
*1298 net102
*1299 net103
*1300 net104
*1301 net105
*1302 net106
*1303 net107
*1304 net108
*1305 net109
*1306 net110
*1307 net111
*1308 net112
*1309 net113
*1310 net114
*1311 net115
*1312 net116
*1313 net117
*1314 net118
*1315 net119
*1316 net120
*1317 net121
*1318 net122
*1319 net123
*1320 net124
*1321 net125
*1322 net126
*1323 net127
*1324 net128
*1325 net129
*1326 net130
*1327 net131
*1328 net132
*1329 net133
*1330 net134
*1331 net135
*1332 net136
*1333 net137
*1334 net138
*1335 net139
*1336 net140
*1337 net2
*1338 net22
*1339 net23
*1340 net24
*1341 net25
*1342 net26
*1343 net27
*1344 net28
*1345 net29
*1346 net3
*1347 net30
*1348 net31
*1349 net32
*1350 net33
*1351 net34
*1352 net35
*1353 net36
*1354 net37
*1355 net38
*1356 net39
*1357 net4
*1358 net40
*1359 net41
*1360 net42
*1361 net43
*1362 net44
*1363 net45
*1364 net46
*1365 net47
*1366 net48
*1367 net49
*1368 net5
*1369 net50
*1370 net51
*1371 net52
*1372 net53
*1373 net54
*1374 net55
*1375 net56
*1376 net57
*1377 net58
*1378 net59
*1379 net6
*1380 net60
*1381 net61
*1382 net62
*1383 net63
*1384 net64
*1385 net65
*1386 net66
*1387 net67
*1388 net68
*1389 net69
*1390 net7
*1391 net70
*1392 net71
*1393 net72
*1394 net73
*1395 net74
*1396 net75
*1397 net76
*1398 net77
*1399 net78
*1400 net79
*1401 net80
*1402 net81
*1403 net82
*1404 net83
*1405 net84
*1406 net85
*1407 net86
*1408 net87
*1409 net88
*1410 net89
*1411 net90
*1412 net91
*1413 net92
*1414 net93
*1415 net94
*1416 net95
*1417 net96
*1418 net97
*1419 net98
*1420 net99
*1421 ANTENNA_1
*1422 ANTENNA_10
*1423 ANTENNA_11
*1424 ANTENNA_12
*1425 ANTENNA_13
*1426 ANTENNA_14
*1427 ANTENNA_15
*1428 ANTENNA_16
*1429 ANTENNA_17
*1430 ANTENNA_18
*1431 ANTENNA_19
*1432 ANTENNA_2
*1433 ANTENNA_20
*1434 ANTENNA_21
*1435 ANTENNA_22
*1436 ANTENNA_23
*1437 ANTENNA_24
*1438 ANTENNA_25
*1439 ANTENNA_26
*1440 ANTENNA_27
*1441 ANTENNA_28
*1442 ANTENNA_29
*1443 ANTENNA_3
*1444 ANTENNA_30
*1445 ANTENNA_31
*1446 ANTENNA_32
*1447 ANTENNA_33
*1448 ANTENNA_34
*1449 ANTENNA_35
*1450 ANTENNA_36
*1451 ANTENNA_37
*1452 ANTENNA_38
*1453 ANTENNA_39
*1454 ANTENNA_4
*1455 ANTENNA_40
*1456 ANTENNA_41
*1457 ANTENNA_42
*1458 ANTENNA_43
*1459 ANTENNA_44
*1460 ANTENNA_45
*1461 ANTENNA_46
*1462 ANTENNA_47
*1463 ANTENNA_48
*1464 ANTENNA_49
*1465 ANTENNA_5
*1466 ANTENNA_50
*1467 ANTENNA_51
*1468 ANTENNA_52
*1469 ANTENNA_6
*1470 ANTENNA_7
*1471 ANTENNA_8
*1472 ANTENNA_9
*1473 FILLER_0_0_109
*1474 FILLER_0_0_120
*1475 FILLER_0_0_139
*1476 FILLER_0_0_141
*1477 FILLER_0_0_15
*1478 FILLER_0_0_153
*1479 FILLER_0_0_161
*1480 FILLER_0_0_169
*1481 FILLER_0_0_181
*1482 FILLER_0_0_187
*1483 FILLER_0_0_195
*1484 FILLER_0_0_197
*1485 FILLER_0_0_201
*1486 FILLER_0_0_219
*1487 FILLER_0_0_223
*1488 FILLER_0_0_225
*1489 FILLER_0_0_231
*1490 FILLER_0_0_256
*1491 FILLER_0_0_268
*1492 FILLER_0_0_27
*1493 FILLER_0_0_281
*1494 FILLER_0_0_29
*1495 FILLER_0_0_293
*1496 FILLER_0_0_3
*1497 FILLER_0_0_305
*1498 FILLER_0_0_309
*1499 FILLER_0_0_313
*1500 FILLER_0_0_316
*1501 FILLER_0_0_320
*1502 FILLER_0_0_334
*1503 FILLER_0_0_41
*1504 FILLER_0_0_53
*1505 FILLER_0_0_57
*1506 FILLER_0_0_69
*1507 FILLER_0_0_81
*1508 FILLER_0_0_85
*1509 FILLER_0_0_97
*1510 FILLER_0_10_100
*1511 FILLER_0_10_126
*1512 FILLER_0_10_141
*1513 FILLER_0_10_168
*1514 FILLER_0_10_17
*1515 FILLER_0_10_176
*1516 FILLER_0_10_180
*1517 FILLER_0_10_193
*1518 FILLER_0_10_205
*1519 FILLER_0_10_253
*1520 FILLER_0_10_261
*1521 FILLER_0_10_3
*1522 FILLER_0_10_309
*1523 FILLER_0_10_36
*1524 FILLER_0_10_41
*1525 FILLER_0_10_53
*1526 FILLER_0_10_63
*1527 FILLER_0_10_75
*1528 FILLER_0_10_94
*1529 FILLER_0_11_137
*1530 FILLER_0_11_158
*1531 FILLER_0_11_218
*1532 FILLER_0_11_240
*1533 FILLER_0_11_25
*1534 FILLER_0_11_256
*1535 FILLER_0_11_265
*1536 FILLER_0_11_272
*1537 FILLER_0_11_288
*1538 FILLER_0_11_29
*1539 FILLER_0_11_297
*1540 FILLER_0_11_321
*1541 FILLER_0_11_325
*1542 FILLER_0_11_334
*1543 FILLER_0_11_45
*1544 FILLER_0_11_49
*1545 FILLER_0_11_57
*1546 FILLER_0_11_61
*1547 FILLER_0_11_72
*1548 FILLER_0_11_94
*1549 FILLER_0_12_138
*1550 FILLER_0_12_141
*1551 FILLER_0_12_161
*1552 FILLER_0_12_186
*1553 FILLER_0_12_197
*1554 FILLER_0_12_214
*1555 FILLER_0_12_250
*1556 FILLER_0_12_26
*1557 FILLER_0_12_262
*1558 FILLER_0_12_272
*1559 FILLER_0_12_278
*1560 FILLER_0_12_318