*SPEF "ieee 1481-1999"
*DESIGN "tt_um_scorbetta_goa"
*DATE "11:11:11 Fri 11 11, 1111"
*VENDOR "OpenRCX"
*PROGRAM "Parallel Extraction"
*VERSION "1.0"
*DESIGN_FLOW "NAME_SCOPE LOCAL" "PIN_CAP NONE"
*DIVIDER /
*DELIMITER :
*BUS_DELIMITER []
*T_UNIT 1 NS
*C_UNIT 1 PF
*R_UNIT 1 OHM
*L_UNIT 1 HENRY

*NAME_MAP
*3 clk
*4 ena
*5 rst_n
*6 ui_in[0]
*7 ui_in[1]
*8 ui_in[2]
*9 ui_in[3]
*10 ui_in[4]
*11 ui_in[5]
*12 ui_in[6]
*13 ui_in[7]
*14 uio_in[0]
*15 uio_in[1]
*16 uio_in[2]
*17 uio_in[3]
*18 uio_in[4]
*19 uio_in[5]
*20 uio_in[6]
*21 uio_in[7]
*22 net10
*23 net11
*24 net12
*25 net13
*26 net14
*27 net15
*28 net16
*29 net17
*30 net18
*31 net19
*32 net20
*33 net21
*34 net22
*35 net23
*36 net24
*37 net25
*38 uo_out[0]
*39 uo_out[1]
*40 uo_out[2]
*41 uo_out[3]
*42 uo_out[4]
*43 uo_out[5]
*44 uo_out[6]
*45 uo_out[7]
*46 COUNTER\.VALUE\[0\]
*47 COUNTER\.VALUE\[1\]
*48 COUNTER\.VALUE\[2\]
*49 COUNTER\.VALUE\[3\]
*50 COUNTER\.VALUE\[4\]
*51 COUNTER\.VALUE\[5\]
*52 COUNTER\.VALUE\[6\]
*53 COUNTER\.VALUE\[7\]
*54 NEURON_WRAPPER\.DONE
*55 NEURON_WRAPPER\.NEURON\.BIAS\[0\]
*56 NEURON_WRAPPER\.NEURON\.BIAS\[1\]
*57 NEURON_WRAPPER\.NEURON\.BIAS\[2\]
*58 NEURON_WRAPPER\.NEURON\.BIAS\[3\]
*59 NEURON_WRAPPER\.NEURON\.BIAS\[4\]
*60 NEURON_WRAPPER\.NEURON\.BIAS\[5\]
*61 NEURON_WRAPPER\.NEURON\.BIAS\[6\]
*62 NEURON_WRAPPER\.NEURON\.BIAS\[7\]
*63 NEURON_WRAPPER\.NEURON\.FP_ACT\.ABS_ENGINE\.ADDER\.RSTN
*64 NEURON_WRAPPER\.NEURON\.FP_ACT\.ABS_ENGINE\.ADDER\.VALID_IN
*65 NEURON_WRAPPER\.NEURON\.FP_ACT\.ABS_ENGINE\.ADDER\.VALID_OUT
*66 NEURON_WRAPPER\.NEURON\.FP_ACT\.ABS_ENGINE\.ADDER\.VALUE_OUT\[0\]
*67 NEURON_WRAPPER\.NEURON\.FP_ACT\.ABS_ENGINE\.ADDER\.VALUE_OUT\[1\]
*68 NEURON_WRAPPER\.NEURON\.FP_ACT\.ABS_ENGINE\.ADDER\.VALUE_OUT\[2\]
*69 NEURON_WRAPPER\.NEURON\.FP_ACT\.ABS_ENGINE\.ADDER\.VALUE_OUT\[3\]
*70 NEURON_WRAPPER\.NEURON\.FP_ACT\.ABS_ENGINE\.ADDER\.VALUE_OUT\[4\]
*71 NEURON_WRAPPER\.NEURON\.FP_ACT\.ABS_ENGINE\.ADDER\.VALUE_OUT\[5\]
*72 NEURON_WRAPPER\.NEURON\.FP_ACT\.ABS_ENGINE\.ADDER\.VALUE_OUT\[6\]
*73 NEURON_WRAPPER\.NEURON\.FP_ACT\.ABS_ENGINE\.ADDER\.VALUE_OUT\[7\]
*74 NEURON_WRAPPER\.NEURON\.FP_ACT\.ABS_ENGINE\.VALID_OUT
*75 NEURON_WRAPPER\.NEURON\.FP_ACT\.ABS_ENGINE\.VALUE_IN\[0\]
*76 NEURON_WRAPPER\.NEURON\.FP_ACT\.ABS_ENGINE\.VALUE_IN\[1\]
*77 NEURON_WRAPPER\.NEURON\.FP_ACT\.ABS_ENGINE\.VALUE_IN\[2\]
*78 NEURON_WRAPPER\.NEURON\.FP_ACT\.ABS_ENGINE\.VALUE_IN\[3\]
*79 NEURON_WRAPPER\.NEURON\.FP_ACT\.ABS_ENGINE\.VALUE_IN\[4\]
*80 NEURON_WRAPPER\.NEURON\.FP_ACT\.ABS_ENGINE\.VALUE_IN\[5\]
*81 NEURON_WRAPPER\.NEURON\.FP_ACT\.ABS_ENGINE\.VALUE_IN\[6\]
*82 NEURON_WRAPPER\.NEURON\.FP_ACT\.ABS_ENGINE\.VALUE_IN\[7\]
*83 NEURON_WRAPPER\.NEURON\.FP_ACT\.ABS_ENGINE\.VALUE_OUT\[0\]
*84 NEURON_WRAPPER\.NEURON\.FP_ACT\.ABS_ENGINE\.VALUE_OUT\[1\]
*85 NEURON_WRAPPER\.NEURON\.FP_ACT\.ABS_ENGINE\.VALUE_OUT\[2\]
*86 NEURON_WRAPPER\.NEURON\.FP_ACT\.ABS_ENGINE\.VALUE_OUT\[3\]
*87 NEURON_WRAPPER\.NEURON\.FP_ACT\.ABS_ENGINE\.VALUE_OUT\[4\]
*88 NEURON_WRAPPER\.NEURON\.FP_ACT\.ABS_ENGINE\.VALUE_OUT\[5\]
*89 NEURON_WRAPPER\.NEURON\.FP_ACT\.ABS_ENGINE\.VALUE_OUT\[6\]
*90 NEURON_WRAPPER\.NEURON\.FP_ACT\.ABS_ENGINE\.VALUE_OUT\[7\]
*91 NEURON_WRAPPER\.NEURON\.FP_ACT\.LINE_ADD\.VALID_IN
*92 NEURON_WRAPPER\.NEURON\.FP_ACT\.LINE_ADD\.VALID_OUT
*93 NEURON_WRAPPER\.NEURON\.FP_ACT\.LINE_ADD\.VALUE_A_IN\[0\]
*94 NEURON_WRAPPER\.NEURON\.FP_ACT\.LINE_ADD\.VALUE_A_IN\[1\]
*95 NEURON_WRAPPER\.NEURON\.FP_ACT\.LINE_ADD\.VALUE_A_IN\[2\]
*96 NEURON_WRAPPER\.NEURON\.FP_ACT\.LINE_ADD\.VALUE_A_IN\[3\]
*97 NEURON_WRAPPER\.NEURON\.FP_ACT\.LINE_ADD\.VALUE_A_IN\[4\]
*98 NEURON_WRAPPER\.NEURON\.FP_ACT\.LINE_ADD\.VALUE_A_IN\[5\]
*99 NEURON_WRAPPER\.NEURON\.FP_ACT\.LINE_ADD\.VALUE_A_IN\[6\]
*100 NEURON_WRAPPER\.NEURON\.FP_ACT\.LINE_ADD\.VALUE_A_IN\[7\]
*101 NEURON_WRAPPER\.NEURON\.FP_ACT\.LINE_ADD\.VALUE_OUT\[0\]
*102 NEURON_WRAPPER\.NEURON\.FP_ACT\.LINE_ADD\.VALUE_OUT\[1\]
*103 NEURON_WRAPPER\.NEURON\.FP_ACT\.LINE_ADD\.VALUE_OUT\[2\]
*104 NEURON_WRAPPER\.NEURON\.FP_ACT\.LINE_ADD\.VALUE_OUT\[3\]
*105 NEURON_WRAPPER\.NEURON\.FP_ACT\.LINE_ADD\.VALUE_OUT\[4\]
*106 NEURON_WRAPPER\.NEURON\.FP_ACT\.LINE_ADD\.VALUE_OUT\[5\]
*107 NEURON_WRAPPER\.NEURON\.FP_ACT\.LINE_ADD\.VALUE_OUT\[6\]
*108 NEURON_WRAPPER\.NEURON\.FP_ACT\.LINE_ADD\.VALUE_OUT\[7\]
*109 NEURON_WRAPPER\.NEURON\.FP_ACT\.SIGN_ADJUST\.ADDER\.VALID_OUT
*110 NEURON_WRAPPER\.NEURON\.FP_ACT\.SIGN_ADJUST\.ADDER\.VALUE_OUT\[0\]
*111 NEURON_WRAPPER\.NEURON\.FP_ACT\.SIGN_ADJUST\.ADDER\.VALUE_OUT\[1\]
*112 NEURON_WRAPPER\.NEURON\.FP_ACT\.SIGN_ADJUST\.ADDER\.VALUE_OUT\[2\]
*113 NEURON_WRAPPER\.NEURON\.FP_ACT\.SIGN_ADJUST\.ADDER\.VALUE_OUT\[3\]
*114 NEURON_WRAPPER\.NEURON\.FP_ACT\.SIGN_ADJUST\.ADDER\.VALUE_OUT\[4\]
*115 NEURON_WRAPPER\.NEURON\.FP_ACT\.SIGN_ADJUST\.ADDER\.VALUE_OUT\[5\]
*116 NEURON_WRAPPER\.NEURON\.FP_ACT\.SIGN_ADJUST\.ADDER\.VALUE_OUT\[6\]
*117 NEURON_WRAPPER\.NEURON\.FP_ACT\.SIGN_ADJUST\.ADDER\.VALUE_OUT\[7\]
*118 NEURON_WRAPPER\.NEURON\.FP_ACT\.SIGN_ADJUST\.VALUE_OUT\[0\]
*119 NEURON_WRAPPER\.NEURON\.FP_ACT\.SIGN_ADJUST\.VALUE_OUT\[1\]
*120 NEURON_WRAPPER\.NEURON\.FP_ACT\.SIGN_ADJUST\.VALUE_OUT\[2\]
*121 NEURON_WRAPPER\.NEURON\.FP_ACT\.SIGN_ADJUST\.VALUE_OUT\[3\]
*122 NEURON_WRAPPER\.NEURON\.FP_ACT\.SIGN_ADJUST\.VALUE_OUT\[4\]
*123 NEURON_WRAPPER\.NEURON\.FP_ACT\.SIGN_ADJUST\.VALUE_OUT\[5\]
*124 NEURON_WRAPPER\.NEURON\.FP_ACT\.SIGN_ADJUST\.VALUE_OUT\[6\]
*125 NEURON_WRAPPER\.NEURON\.FP_ACT\.SIGN_ADJUST\.VALUE_OUT\[7\]
*126 NEURON_WRAPPER\.NEURON\.FP_ADD\.VALID_IN
*127 NEURON_WRAPPER\.NEURON\.FP_ADD\.VALID_OUT
*128 NEURON_WRAPPER\.NEURON\.FP_ADD\.VALUE_B_IN\[0\]
*129 NEURON_WRAPPER\.NEURON\.FP_ADD\.VALUE_B_IN\[1\]
*130 NEURON_WRAPPER\.NEURON\.FP_ADD\.VALUE_B_IN\[2\]
*131 NEURON_WRAPPER\.NEURON\.FP_ADD\.VALUE_B_IN\[3\]
*132 NEURON_WRAPPER\.NEURON\.FP_ADD\.VALUE_B_IN\[4\]
*133 NEURON_WRAPPER\.NEURON\.FP_ADD\.VALUE_B_IN\[5\]
*134 NEURON_WRAPPER\.NEURON\.FP_ADD\.VALUE_B_IN\[6\]
*135 NEURON_WRAPPER\.NEURON\.FP_ADD\.VALUE_B_IN\[7\]
*136 NEURON_WRAPPER\.NEURON\.FP_ADD\.VALUE_OUT\[0\]
*137 NEURON_WRAPPER\.NEURON\.FP_ADD\.VALUE_OUT\[1\]
*138 NEURON_WRAPPER\.NEURON\.FP_ADD\.VALUE_OUT\[2\]
*139 NEURON_WRAPPER\.NEURON\.FP_ADD\.VALUE_OUT\[3\]
*140 NEURON_WRAPPER\.NEURON\.FP_ADD\.VALUE_OUT\[4\]
*141 NEURON_WRAPPER\.NEURON\.FP_ADD\.VALUE_OUT\[5\]
*142 NEURON_WRAPPER\.NEURON\.FP_ADD\.VALUE_OUT\[6\]
*143 NEURON_WRAPPER\.NEURON\.FP_ADD\.VALUE_OUT\[7\]
*144 NEURON_WRAPPER\.NEURON\.FP_BIAS\.VALID_IN
*145 NEURON_WRAPPER\.NEURON\.FP_MUL\.VALID_IN
*146 NEURON_WRAPPER\.NEURON\.FP_MUL\.VALUE_A_IN\[0\]
*147 NEURON_WRAPPER\.NEURON\.FP_MUL\.VALUE_A_IN\[1\]
*148 NEURON_WRAPPER\.NEURON\.FP_MUL\.VALUE_A_IN\[2\]
*149 NEURON_WRAPPER\.NEURON\.FP_MUL\.VALUE_A_IN\[3\]
*150 NEURON_WRAPPER\.NEURON\.FP_MUL\.VALUE_A_IN\[4\]
*151 NEURON_WRAPPER\.NEURON\.FP_MUL\.VALUE_A_IN\[5\]
*152 NEURON_WRAPPER\.NEURON\.FP_MUL\.VALUE_A_IN\[6\]
*153 NEURON_WRAPPER\.NEURON\.FP_MUL\.VALUE_A_IN\[7\]
*154 NEURON_WRAPPER\.NEURON\.NCE\.ACC_MUX
*155 NEURON_WRAPPER\.NEURON\.NCE\.BUSY
*156 NEURON_WRAPPER\.NEURON\.NCE\.WEIGHTS\[0\]
*157 NEURON_WRAPPER\.NEURON\.NCE\.WEIGHTS\[10\]
*158 NEURON_WRAPPER\.NEURON\.NCE\.WEIGHTS\[11\]
*159 NEURON_WRAPPER\.NEURON\.NCE\.WEIGHTS\[12\]
*160 NEURON_WRAPPER\.NEURON\.NCE\.WEIGHTS\[13\]
*161 NEURON_WRAPPER\.NEURON\.NCE\.WEIGHTS\[14\]
*162 NEURON_WRAPPER\.NEURON\.NCE\.WEIGHTS\[15\]
*163 NEURON_WRAPPER\.NEURON\.NCE\.WEIGHTS\[1\]
*164 NEURON_WRAPPER\.NEURON\.NCE\.WEIGHTS\[2\]
*165 NEURON_WRAPPER\.NEURON\.NCE\.WEIGHTS\[3\]
*166 NEURON_WRAPPER\.NEURON\.NCE\.WEIGHTS\[4\]
*167 NEURON_WRAPPER\.NEURON\.NCE\.WEIGHTS\[5\]
*168 NEURON_WRAPPER\.NEURON\.NCE\.WEIGHTS\[6\]
*169 NEURON_WRAPPER\.NEURON\.NCE\.WEIGHTS\[7\]
*170 NEURON_WRAPPER\.NEURON\.NCE\.WEIGHTS\[8\]
*171 NEURON_WRAPPER\.NEURON\.NCE\.WEIGHTS\[9\]
*172 NEURON_WRAPPER\.NEURON\.NCE\.delayed_rstn\[0\]
*173 NEURON_WRAPPER\.NEURON\.NCE\.delayed_rstn\[1\]
*174 NEURON_WRAPPER\.NEURON\.NCE\.delayed_rstn\[2\]
*175 NEURON_WRAPPER\.NEURON\.NCE\.delayed_rstn\[3\]
*176 NEURON_WRAPPER\.NEURON\.NCE\.valid_in_edges\[0\]
*177 NEURON_WRAPPER\.NEURON\.NCE\.valid_in_edges\[1\]
*178 NEURON_WRAPPER\.NEURON\.READY
*179 NEURON_WRAPPER\.REGPOOL\.BIAS_REG\.VALUE_IN\[0\]
*180 NEURON_WRAPPER\.REGPOOL\.BIAS_REG\.VALUE_IN\[1\]
*181 NEURON_WRAPPER\.REGPOOL\.BIAS_REG\.VALUE_IN\[2\]
*182 NEURON_WRAPPER\.REGPOOL\.BIAS_REG\.VALUE_IN\[3\]
*183 NEURON_WRAPPER\.REGPOOL\.BIAS_REG\.VALUE_IN\[4\]
*184 NEURON_WRAPPER\.REGPOOL\.BIAS_REG\.VALUE_IN\[5\]
*185 NEURON_WRAPPER\.REGPOOL\.BIAS_REG\.VALUE_IN\[6\]
*186 NEURON_WRAPPER\.REGPOOL\.BIAS_REG\.VALUE_IN\[7\]
*187 NEURON_WRAPPER\.REGPOOL\.BIAS_REG\.WEN
*188 NEURON_WRAPPER\.REGPOOL\.RADDR\[0\]
*189 NEURON_WRAPPER\.REGPOOL\.RADDR\[1\]
*190 NEURON_WRAPPER\.REGPOOL\.RESULT_REG\.REG\.VALUE_OUT\[0\]
*191 NEURON_WRAPPER\.REGPOOL\.RESULT_REG\.REG\.VALUE_OUT\[1\]
*192 NEURON_WRAPPER\.REGPOOL\.RESULT_REG\.REG\.VALUE_OUT\[2\]
*193 NEURON_WRAPPER\.REGPOOL\.RESULT_REG\.REG\.VALUE_OUT\[3\]
*194 NEURON_WRAPPER\.REGPOOL\.RESULT_REG\.REG\.VALUE_OUT\[4\]
*195 NEURON_WRAPPER\.REGPOOL\.RESULT_REG\.REG\.VALUE_OUT\[5\]
*196 NEURON_WRAPPER\.REGPOOL\.RESULT_REG\.REG\.VALUE_OUT\[6\]
*197 NEURON_WRAPPER\.REGPOOL\.RESULT_REG\.REG\.VALUE_OUT\[7\]
*198 NEURON_WRAPPER\.REGPOOL\.RREQ
*199 NEURON_WRAPPER\.REGPOOL\.RVALID
*200 NEURON_WRAPPER\.REGPOOL\.WACK
*201 NEURON_WRAPPER\.REGPOOL\.WEIGHT_0_REG\.WEN
*202 NEURON_WRAPPER\.REGPOOL\.WEIGHT_1_REG\.WEN
*203 NEURON_WRAPPER\.REGPOOL\.WREQ
*204 NEURON_WRAPPER\.SCI_ACK
*205 NEURON_WRAPPER\.SCI_RESP
*206 NEURON_WRAPPER\.SCI_SLAVE\.ADDRESS_BUFFER\.EN
*207 NEURON_WRAPPER\.SCI_SLAVE\.ADDRESS_BUFFER\.SIN
*208 NEURON_WRAPPER\.SCI_SLAVE\.ADDR_COUNTER\.VALUE
*209 NEURON_WRAPPER\.SCI_SLAVE\.DATA_COUNTER\.EN
*210 NEURON_WRAPPER\.SCI_SLAVE\.DATA_COUNTER\.VALUE\[0\]
*211 NEURON_WRAPPER\.SCI_SLAVE\.DATA_COUNTER\.VALUE\[1\]
*212 NEURON_WRAPPER\.SCI_SLAVE\.DATA_COUNTER\.VALUE\[2\]
*213 NEURON_WRAPPER\.SCI_SLAVE\.NEW_REQ_DETECTOR\.SAMPLE_IN
*214 NEURON_WRAPPER\.SCI_SLAVE\.NEW_REQ_DETECTOR\.sample_in
*215 NEURON_WRAPPER\.SCI_SLAVE\.RDATA_BUFFER\.genblk1\[1\]\.DFFEN\.Q
*216 NEURON_WRAPPER\.SCI_SLAVE\.RDATA_BUFFER\.genblk1\[2\]\.DFFEN\.Q
*217 NEURON_WRAPPER\.SCI_SLAVE\.RDATA_BUFFER\.genblk1\[3\]\.DFFEN\.Q
*218 NEURON_WRAPPER\.SCI_SLAVE\.RDATA_BUFFER\.genblk1\[4\]\.DFFEN\.Q
*219 NEURON_WRAPPER\.SCI_SLAVE\.RDATA_BUFFER\.genblk1\[5\]\.DFFEN\.Q
*220 NEURON_WRAPPER\.SCI_SLAVE\.RDATA_BUFFER\.genblk1\[6\]\.DFFEN\.Q
*221 NEURON_WRAPPER\.SCI_SLAVE\.RDATA_BUFFER\.genblk1\[7\]\.DFFEN\.Q
*222 NEURON_WRAPPER\.SCI_SLAVE\.curr_state\[0\]
*223 NEURON_WRAPPER\.SCI_SLAVE\.curr_state\[1\]
*224 NEURON_WRAPPER\.SCI_SLAVE\.curr_state\[4\]
*225 NEURON_WRAPPER\.SCI_SLAVE\.wnr
*226 NEURON_WRAPPER\.SHIFT_VALUE_OUT
*227 NEURON_WRAPPER\.VALUE_OUT_BUFFER\.genblk1\[1\]\.DFFEN\.Q
*228 NEURON_WRAPPER\.VALUE_OUT_BUFFER\.genblk1\[2\]\.DFFEN\.Q
*229 NEURON_WRAPPER\.VALUE_OUT_BUFFER\.genblk1\[3\]\.DFFEN\.Q
*230 NEURON_WRAPPER\.VALUE_OUT_BUFFER\.genblk1\[4\]\.DFFEN\.Q
*231 NEURON_WRAPPER\.VALUE_OUT_BUFFER\.genblk1\[5\]\.DFFEN\.Q
*232 NEURON_WRAPPER\.VALUE_OUT_BUFFER\.genblk1\[6\]\.DFFEN\.Q
*233 NEURON_WRAPPER\.VALUE_OUT_BUFFER\.genblk1\[7\]\.DFFEN\.Q
*234 _0000_
*235 _0001_
*236 _0002_
*237 _0003_
*238 _0004_
*239 _0005_
*240 _0006_
*241 _0007_
*242 _0008_
*243 _0009_
*244 _0010_
*245 _0011_
*246 _0012_
*247 _0013_
*248 _0014_
*249 _0015_
*250 _0016_
*251 _0017_
*252 _0018_
*253 _0019_
*254 _0020_
*255 _0021_
*256 _0022_
*257 _0023_
*258 _0024_
*259 _0025_
*260 _0026_
*261 _0027_
*262 _0028_
*263 _0029_
*264 _0030_
*265 _0031_
*266 _0032_
*267 _0033_
*268 _0034_
*269 _0035_
*270 _0036_
*271 _0037_
*272 _0038_
*273 _0039_
*274 _0040_
*275 _0041_
*276 _0042_
*277 _0043_
*278 _0044_
*279 _0045_
*280 _0046_
*281 _0047_
*282 _0048_
*283 _0049_
*284 _0050_
*285 _0051_
*286 _0052_
*287 _0053_
*288 _0054_
*289 _0055_
*290 _0056_
*291 _0057_
*292 _0058_
*293 _0059_
*294 _0060_
*295 _0061_
*296 _0062_
*297 _0063_
*298 _0064_
*299 _0065_
*300 _0066_
*301 _0067_
*302 _0068_
*303 _0069_
*304 _0070_
*305 _0071_
*306 _0072_
*307 _0073_
*308 _0074_
*309 _0075_
*310 _0076_
*311 _0077_
*312 _0078_
*313 _0079_
*314 _0080_
*315 _0081_
*316 _0082_
*317 _0083_
*318 _0084_
*319 _0085_
*320 _0086_
*321 _0087_
*322 _0088_
*323 _0089_
*324 _0090_
*325 _0091_
*326 _0092_
*327 _0093_
*328 _0094_
*329 _0095_
*330 _0096_
*331 _0097_
*332 _0098_
*333 _0099_
*334 _0100_
*335 _0101_
*336 _0102_
*337 _0103_
*338 _0104_
*339 _0105_
*340 _0106_
*341 _0107_
*342 _0108_
*343 _0109_
*344 _0110_
*345 _0111_
*346 _0112_
*347 _0113_
*348 _0114_
*349 _0115_
*350 _0116_
*351 _0117_
*352 _0118_
*353 _0119_
*354 _0120_
*355 _0121_
*356 _0122_
*357 _0123_
*358 _0124_
*359 _0125_
*360 _0126_
*361 _0127_
*362 _0128_
*363 _0129_
*364 _0130_
*365 _0131_
*366 _0132_
*367 _0133_
*368 _0134_
*369 _0135_
*370 _0136_
*371 _0137_
*372 _0138_
*373 _0139_
*374 _0140_
*375 _0141_
*376 _0142_
*377 _0143_
*378 _0144_
*379 _0145_
*380 _0146_
*381 _0147_
*382 _0148_
*383 _0149_
*384 _0150_
*385 _0151_
*386 _0152_
*387 _0153_
*388 _0154_
*389 _0155_
*390 _0156_
*391 _0157_
*392 _0158_
*393 _0159_
*394 _0160_
*395 _0161_
*396 _0162_
*397 _0163_
*398 _0164_
*399 _0165_
*400 _0166_
*401 _0167_
*402 _0168_
*403 _0169_
*404 _0170_
*405 _0171_
*406 _0172_
*407 _0173_
*408 _0174_
*409 _0175_
*410 _0176_
*411 _0177_
*412 _0178_
*413 _0179_
*414 _0180_
*415 _0181_
*416 _0182_
*417 _0183_
*418 _0184_
*419 _0185_
*420 _0186_
*421 _0187_
*422 _0188_
*423 _0189_
*424 _0190_
*425 _0191_
*426 _0192_
*427 _0193_
*428 _0194_
*429 _0195_
*430 _0196_
*431 _0197_
*432 _0198_
*433 _0199_
*434 _0200_
*435 _0201_
*436 _0202_
*437 _0203_
*438 _0204_
*439 _0205_
*440 _0206_
*441 _0207_
*442 _0208_
*443 _0209_
*444 _0210_
*445 _0211_
*446 _0212_
*447 _0213_
*448 _0214_
*449 _0215_
*450 _0216_
*451 _0217_
*452 _0218_
*453 _0219_
*454 _0220_
*455 _0221_
*456 _0222_
*457 _0223_
*458 _0224_
*459 _0225_
*460 _0226_
*461 _0227_
*462 _0228_
*463 _0229_
*464 _0230_
*465 _0231_
*466 _0232_
*467 _0233_
*468 _0234_
*469 _0235_
*470 _0236_
*471 _0237_
*472 _0238_
*473 _0239_
*474 _0240_
*475 _0241_
*476 _0242_
*477 _0243_
*478 _0244_
*479 _0245_
*480 _0246_
*481 _0247_
*482 _0248_
*483 _0249_
*484 _0250_
*485 _0251_
*486 _0252_
*487 _0253_
*488 _0254_
*489 _0255_
*490 _0256_
*491 _0257_
*492 _0258_
*493 _0259_
*494 _0260_
*495 _0261_
*496 _0262_
*497 _0263_
*498 _0264_
*499 _0265_
*500 _0266_
*501 _0267_
*502 _0268_
*503 _0269_
*504 _0270_
*505 _0271_
*506 _0272_
*507 _0273_
*508 _0274_
*509 _0275_
*510 _0276_
*511 _0277_
*512 _0278_
*513 _0279_
*514 _0280_
*515 _0281_
*516 _0282_
*517 _0283_
*518 _0284_
*519 _0285_
*520 _0286_
*521 _0287_
*522 _0288_
*523 _0289_
*524 _0290_
*525 _0291_
*526 _0292_
*527 _0293_
*528 _0294_
*529 _0295_
*530 _0296_
*531 _0297_
*532 _0298_
*533 _0299_
*534 _0300_
*535 _0301_
*536 _0302_
*537 _0303_
*538 _0304_
*539 _0305_
*540 _0306_
*541 _0307_
*542 _0308_
*543 _0309_
*544 _0310_
*545 _0311_
*546 _0312_
*547 _0313_
*548 _0314_
*549 _0315_
*550 _0316_
*551 _0317_
*552 _0318_
*553 _0319_
*554 _0320_
*555 _0321_
*556 _0322_
*557 _0323_
*558 _0324_
*559 _0325_
*560 _0326_
*561 _0327_
*562 _0328_
*563 _0329_
*564 _0330_
*565 _0331_
*566 _0332_
*567 _0333_
*568 _0334_
*569 _0335_
*570 _0336_
*571 _0337_
*572 _0338_
*573 _0339_
*574 _0340_
*575 _0341_
*576 _0342_
*577 _0343_
*578 _0344_
*579 _0345_
*580 _0346_
*581 _0347_
*582 _0348_
*583 _0349_
*584 _0350_
*585 _0351_
*586 _0352_
*587 _0353_
*588 _0354_
*589 _0355_
*590 _0356_
*591 _0357_
*592 _0358_
*593 _0359_
*594 _0360_
*595 _0361_
*596 _0362_
*597 _0363_
*598 _0364_
*599 _0365_
*600 _0366_
*601 _0367_
*602 _0368_
*603 _0369_
*604 _0370_
*605 _0371_
*606 _0372_
*607 _0373_
*608 _0374_
*609 _0375_
*610 _0376_
*611 _0377_
*612 _0378_
*613 _0379_
*614 _0380_
*615 _0381_
*616 _0382_
*617 _0383_
*618 _0384_
*619 _0385_
*620 _0386_
*621 _0387_
*622 _0388_
*623 _0389_
*624 _0390_
*625 _0391_
*626 _0392_
*627 _0393_
*628 _0394_
*629 _0395_
*630 _0396_
*631 _0397_
*632 _0398_
*633 _0399_
*634 _0400_
*635 _0401_
*636 _0402_
*637 _0403_
*638 _0404_
*639 _0405_
*640 _0406_
*641 _0407_
*642 _0408_
*643 _0409_
*644 _0410_
*645 _0411_
*646 _0412_
*647 _0413_
*648 _0414_
*649 _0415_
*650 _0416_
*651 _0417_
*652 _0418_
*653 _0419_
*654 _0420_
*655 _0421_
*656 _0422_
*657 _0423_
*658 _0424_
*659 _0425_
*660 _0426_
*661 _0427_
*662 _0428_
*663 _0429_
*664 _0430_
*665 _0431_
*666 _0432_
*667 _0433_
*668 _0434_
*669 _0435_
*670 _0436_
*671 _0437_
*672 _0438_
*673 _0439_
*674 _0440_
*675 _0441_
*676 _0442_
*677 _0443_
*678 _0444_
*679 _0445_
*680 _0446_
*681 _0447_
*682 _0448_
*683 _0449_
*684 _0450_
*685 _0451_
*686 _0452_
*687 _0453_
*688 _0454_
*689 _0455_
*690 _0456_
*691 _0457_
*692 _0458_
*693 _0459_
*694 _0460_
*695 _0461_
*696 _0462_
*697 _0463_
*698 _0464_
*699 _0465_
*700 _0466_
*701 _0467_
*702 _0468_
*703 _0469_
*704 _0470_
*705 _0471_
*706 _0472_
*707 _0473_
*708 _0474_
*709 _0475_
*710 _0476_
*711 _0477_
*712 _0478_
*713 _0479_
*714 _0480_
*715 _0481_
*716 _0482_
*717 _0483_
*718 _0484_
*719 _0485_
*720 _0486_
*721 _0487_
*722 _0488_
*723 _0489_
*724 _0490_
*725 _0491_
*726 _0492_
*727 _0493_
*728 _0494_
*729 _0495_
*730 _0496_
*731 _0497_
*732 _0498_
*733 _0499_
*734 _0500_
*735 _0501_
*736 _0502_
*737 _0503_
*738 _0504_
*739 _0505_
*740 _0506_
*741 _0507_
*742 _0508_
*743 _0509_
*744 _0510_
*745 _0511_
*746 _0512_
*747 _0513_
*748 _0514_
*749 _0515_
*750 _0516_
*751 _0517_
*752 _0518_
*753 _0519_
*754 _0520_
*755 _0521_
*756 _0522_
*757 _0523_
*758 _0524_
*759 _0525_
*760 _0526_
*761 _0527_
*762 _0528_
*763 _0529_
*764 _0530_
*765 _0531_
*766 _0532_
*767 _0533_
*768 _0534_
*769 _0535_
*770 _0536_
*771 _0537_
*772 _0538_
*773 _0539_
*774 _0540_
*775 _0541_
*776 _0542_
*777 _0543_
*778 _0544_
*779 _0545_
*780 _0546_
*781 _0547_
*782 _0548_
*783 _0549_
*784 _0550_
*785 _0551_
*786 _0552_
*787 _0553_
*788 _0554_
*789 _0555_
*790 _0556_
*791 _0557_
*792 _0558_
*793 _0559_
*794 _0560_
*795 _0561_
*796 _0562_
*797 _0563_
*798 _0564_
*799 _0565_
*800 _0566_
*801 _0567_
*802 _0568_
*803 _0569_
*804 _0570_
*805 _0571_
*806 _0572_
*807 _0573_
*808 _0574_
*809 _0575_
*810 _0576_
*811 _0577_
*812 _0578_
*813 _0579_
*814 _0580_
*815 _0581_
*816 _0582_
*817 _0583_
*818 _0584_
*819 _0585_
*820 _0586_
*821 _0587_
*822 _0588_
*823 _0589_
*824 _0590_
*825 _0591_
*826 _0592_
*827 _0593_
*828 _0594_
*829 _0595_
*830 _0596_
*831 _0597_
*832 _0598_
*833 _0599_
*834 _0600_
*835 _0601_
*836 _0602_
*837 _0603_
*838 _0604_
*839 _0605_
*840 _0606_
*841 _0607_
*842 _0608_
*843 _0609_
*844 _0610_
*845 _0611_
*846 _0612_
*847 _0613_
*848 _0614_
*849 _0615_
*850 _0616_
*851 _0617_
*852 _0618_
*853 _0619_
*854 _0620_
*855 _0621_
*856 _0622_
*857 _0623_
*858 _0624_
*859 _0625_
*860 _0626_
*861 _0627_
*862 _0628_
*863 _0629_
*864 _0630_
*865 _0631_
*866 _0632_
*867 _0633_
*868 _0634_
*869 _0635_
*870 _0636_
*871 _0637_
*872 _0638_
*873 _0639_
*874 _0640_
*875 _0641_
*876 _0642_
*877 _0643_
*878 _0644_
*879 _0645_
*880 _0646_
*881 _0647_
*882 _0648_
*883 _0649_
*884 _0650_
*885 _0651_
*886 _0652_
*887 _0653_
*888 _0654_
*889 _0655_
*890 _0656_
*891 _0657_
*892 _0658_
*893 _0659_
*894 _0660_
*895 _0661_
*896 _0662_
*897 _0663_
*898 _0664_
*899 _0665_
*900 _0666_
*901 _0667_
*902 _0668_
*903 _0669_
*904 _0670_
*905 _0671_
*906 _0672_
*907 _0673_
*908 _0674_
*909 _0675_
*910 _0676_
*911 _0677_
*912 _0678_
*913 _0679_
*914 _0680_
*915 _0681_
*916 _0682_
*917 _0683_
*918 _0684_
*919 _0685_
*920 _0686_
*921 _0687_
*922 _0688_
*923 _0689_
*924 _0690_
*925 _0691_
*926 _0692_
*927 _0693_
*928 _0694_
*929 _0695_
*930 _0696_
*931 _0697_
*932 _0698_
*933 _0699_
*934 _0700_
*935 _0701_
*936 _0702_
*937 _0703_
*938 _0704_
*939 _0705_
*940 _0706_
*941 _0707_
*942 _0708_
*943 _0709_
*944 _0710_
*945 _0711_
*946 _0712_
*947 _0713_
*948 _0714_
*949 _0715_
*950 _0716_
*951 _0717_
*952 _0718_
*953 _0719_
*954 _0720_
*955 _0721_
*956 _0722_
*957 _0723_
*958 _0724_
*959 _0725_
*960 _0726_
*961 _0727_
*962 _0728_
*963 _0729_
*964 _0730_
*965 _0731_
*966 _0732_
*967 _0733_
*968 _0734_
*969 _0735_
*970 _0736_
*971 _0737_
*972 _0738_
*973 _0739_
*974 _0740_
*975 _0741_
*976 _0742_
*977 _0743_
*978 _0744_
*979 _0745_
*980 _0746_
*981 _0747_
*982 _0748_
*983 _0749_
*984 _0750_
*985 _0751_
*986 _0752_
*987 _0753_
*988 _0754_
*989 _0755_
*990 _0756_
*991 _0757_
*992 _0758_
*993 _0759_
*994 _0760_
*995 _0761_
*996 _0762_
*997 _0763_
*998 _0764_
*999 _0765_
*1000 _0766_
*1001 _0767_
*1002 _0768_
*1003 _0769_
*1004 _0770_
*1005 _0771_
*1006 _0772_
*1007 _0773_
*1008 _0774_
*1009 _0775_
*1010 _0776_
*1011 _0777_
*1012 _0778_
*1013 _0779_
*1014 _0780_
*1015 _0781_
*1016 _0782_
*1017 _0783_
*1018 _0784_
*1019 _0785_
*1020 _0786_
*1021 _0787_
*1022 _0788_
*1023 _0789_
*1024 _0790_
*1025 _0791_
*1026 _0792_
*1027 _0793_
*1028 _0794_
*1029 _0795_
*1030 _0796_
*1031 _0797_
*1032 _0798_
*1033 _0799_
*1034 _0800_
*1035 _0801_
*1036 _0802_
*1037 _0803_
*1038 _0804_
*1039 _0805_
*1040 _0806_
*1041 _0807_
*1042 _0808_
*1043 _0809_
*1044 _0810_
*1045 _0811_
*1046 _0812_
*1047 _0813_
*1048 _0814_
*1049 _0815_
*1050 _0816_
*1051 _0817_
*1052 _0818_
*1053 _0819_
*1054 _0820_
*1055 _0821_
*1056 _0822_
*1057 _0823_
*1058 _0824_
*1059 _0825_
*1060 _0826_
*1061 _0827_
*1062 _0828_
*1063 _0829_
*1064 _0830_
*1065 _0831_
*1066 _0832_
*1067 _0833_
*1068 _0834_
*1069 _0835_
*1070 _0836_
*1071 _0837_
*1072 _0838_
*1073 _0839_
*1074 _0840_
*1075 _0841_
*1076 _0842_
*1077 _0843_
*1078 _0844_
*1079 _0845_
*1080 _0846_
*1081 _0847_
*1082 _0848_
*1083 _0849_
*1084 _0850_
*1085 _0851_
*1086 _0852_
*1087 _0853_
*1088 _0854_
*1089 _0855_
*1090 _0856_
*1091 _0857_
*1092 _0858_
*1093 _0859_
*1094 _0860_
*1095 _0861_
*1096 _0862_
*1097 _0863_
*1098 _0864_
*1099 _0865_
*1100 _0866_
*1101 _0867_
*1102 _0868_
*1103 _0869_
*1104 _0870_
*1105 _0871_
*1106 _0872_
*1107 _0873_
*1108 _0874_
*1109 _0875_
*1110 _0876_
*1111 _0877_
*1112 _0878_
*1113 _0879_
*1114 _0880_
*1115 _0881_
*1116 _0882_
*1117 _0883_
*1118 _0884_
*1119 _0885_
*1120 _0886_
*1121 _0887_
*1122 _0888_
*1123 _0889_
*1124 _0890_
*1125 _0891_
*1126 _0892_
*1127 _0893_
*1128 _0894_
*1129 _0895_
*1130 _0896_
*1131 _0897_
*1132 _0898_
*1133 _0899_
*1134 _0900_
*1135 _0901_
*1136 _0902_
*1137 _0903_
*1138 _0904_
*1139 _0905_
*1140 _0906_
*1141 _0907_
*1142 _0908_
*1143 _0909_
*1144 _0910_
*1145 _0911_
*1146 _0912_
*1147 _0913_
*1148 _0914_
*1149 _0915_
*1150 _0916_
*1151 _0917_
*1152 _0918_
*1153 _0919_
*1154 _0920_
*1155 _0921_
*1156 _0922_
*1157 _0923_
*1158 _0924_
*1159 _0925_
*1160 _0926_
*1161 _0927_
*1162 _0928_
*1163 _0929_
*1164 _0930_
*1165 _0931_
*1166 _0932_
*1167 _0933_
*1168 _0934_
*1169 _0935_
*1170 _0936_
*1171 _0937_
*1172 _0938_
*1173 _0939_
*1174 _0940_
*1175 _0941_
*1176 _0942_
*1177 _0943_
*1178 _0944_
*1179 _0945_
*1180 _0946_
*1181 _0947_
*1182 _0948_
*1183 _0949_
*1184 _0950_
*1185 _0951_
*1186 _0952_
*1187 _0953_
*1188 _0954_
*1189 _0955_
*1190 clknet_0_clk
*1191 clknet_0_ui_in[0]
*1192 clknet_1_0__leaf_clk
*1193 clknet_1_1__leaf_clk
*1194 clknet_4_0_0_ui_in[0]
*1195 clknet_4_10_0_ui_in[0]
*1196 clknet_4_11_0_ui_in[0]
*1197 clknet_4_12_0_ui_in[0]
*1198 clknet_4_13_0_ui_in[0]
*1199 clknet_4_14_0_ui_in[0]
*1200 clknet_4_15_0_ui_in[0]
*1201 clknet_4_1_0_ui_in[0]
*1202 clknet_4_2_0_ui_in[0]
*1203 clknet_4_3_0_ui_in[0]
*1204 clknet_4_4_0_ui_in[0]
*1205 clknet_4_5_0_ui_in[0]
*1206 clknet_4_6_0_ui_in[0]
*1207 clknet_4_7_0_ui_in[0]
*1208 clknet_4_8_0_ui_in[0]
*1209 clknet_4_9_0_ui_in[0]
*1210 net1
*1211 net100
*1212 net101
*1213 net102
*1214 net103
*1215 net104
*1216 net105
*1217 net106
*1218 net107
*1219 net108
*1220 net109
*1221 net110
*1222 net111
*1223 net112
*1224 net113
*1225 net114
*1226 net115
*1227 net116
*1228 net117
*1229 net118
*1230 net119
*1231 net120
*1232 net121
*1233 net122
*1234 net123
*1235 net124
*1236 net125
*1237 net126
*1238 net127
*1239 net128
*1240 net129
*1241 net130
*1242 net131
*1243 net132
*1244 net133
*1245 net134
*1246 net135
*1247 net136
*1248 net137
*1249 net138
*1250 net139
*1251 net140
*1252 net141
*1253 net142
*1254 net143
*1255 net144
*1256 net145
*1257 net146
*1258 net147
*1259 net148
*1260 net149
*1261 net150
*1262 net151
*1263 net152
*1264 net153
*1265 net154
*1266 net155
*1267 net156
*1268 net157
*1269 net158
*1270 net159
*1271 net160
*1272 net161
*1273 net162
*1274 net163
*1275 net164
*1276 net165
*1277 net166
*1278 net167
*1279 net168
*1280 net169
*1281 net170
*1282 net2
*1283 net26
*1284 net27
*1285 net28
*1286 net29
*1287 net3
*1288 net30
*1289 net31
*1290 net32
*1291 net33
*1292 net34
*1293 net35
*1294 net36
*1295 net37
*1296 net38
*1297 net39
*1298 net4
*1299 net40
*1300 net41
*1301 net42
*1302 net43
*1303 net44
*1304 net45
*1305 net46
*1306 net47
*1307 net48
*1308 net49
*1309 net5
*1310 net50
*1311 net51
*1312 net52
*1313 net53
*1314 net54
*1315 net55
*1316 net56
*1317 net57
*1318 net58
*1319 net59
*1320 net6
*1321 net60
*1322 net61
*1323 net62
*1324 net63
*1325 net64
*1326 net65
*1327 net66
*1328 net67
*1329 net68
*1330 net69
*1331 net7
*1332 net70
*1333 net71
*1334 net72
*1335 net73
*1336 net74
*1337 net75
*1338 net76
*1339 net77
*1340 net78
*1341 net79
*1342 net8
*1343 net80
*1344 net81
*1345 net82
*1346 net83
*1347 net84
*1348 net85
*1349 net86
*1350 net87
*1351 net88
*1352 net89
*1353 net9
*1354 net90
*1355 net91
*1356 net92
*1357 net93
*1358 net94
*1359 net95
*1360 net96
*1361 net97
*1362 net98
*1363 net99
*1364 ANTENNA_1
*1365 ANTENNA_2
*1366 ANTENNA_3
*1367 ANTENNA_4
*1368 ANTENNA_5
*1369 ANTENNA_6
*1370 ANTENNA_7
*1371 ANTENNA_8
*1372 ANTENNA_9
*1373 FILLER_0_0_100
*1374 FILLER_0_0_113
*1375 FILLER_0_0_125
*1376 FILLER_0_0_137
*1377 FILLER_0_0_141
*1378 FILLER_0_0_15
*1379 FILLER_0_0_153
*1380 FILLER_0_0_165
*1381 FILLER_0_0_169
*1382 FILLER_0_0_181
*1383 FILLER_0_0_193
*1384 FILLER_0_0_197
*1385 FILLER_0_0_209
*1386 FILLER_0_0_221
*1387 FILLER_0_0_225
*1388 FILLER_0_0_237
*1389 FILLER_0_0_249
*1390 FILLER_0_0_253
*1391 FILLER_0_0_265
*1392 FILLER_0_0_27
*1393 FILLER_0_0_277
*1394 FILLER_0_0_281
*1395 FILLER_0_0_29
*1396 FILLER_0_0_293
*1397 FILLER_0_0_3
*1398 FILLER_0_0_305
*1399 FILLER_0_0_309
*1400 FILLER_0_0_321
*1401 FILLER_0_0_333
*1402 FILLER_0_0_41
*1403 FILLER_0_0_53
*1404 FILLER_0_0_57
*1405 FILLER_0_0_69
*1406 FILLER_0_0_81
*1407 FILLER_0_0_85
*1408 FILLER_0_10_109
*1409 FILLER_0_10_117
*1410 FILLER_0_10_126
*1411 FILLER_0_10_135
*1412 FILLER_0_10_172
*1413 FILLER_0_10_184
*1414 FILLER_0_10_190
*1415 FILLER_0_10_194
*1416 FILLER_0_10_20
*1417 FILLER_0_10_246
*1418 FILLER_0_10_273
*1419 FILLER_0_10_3
*1420 FILLER_0_10_47
*1421 FILLER_0_10_53
*1422 FILLER_0_10_59
*1423 FILLER_0_10_79
*1424 FILLER_0_10_83
*1425 FILLER_0_10_85
*1426 FILLER_0_10_89
*1427 FILLER_0_11_109
*1428 FILLER_0_11_113
*1429 FILLER_0_11_117
*1430 FILLER_0_11_125
*1431 FILLER_0_11_134
*1432 FILLER_0_11_142
*1433 FILLER_0_11_150
*1434 FILLER_0_11_158
*1435 FILLER_0_11_176
*1436 FILLER_0_11_205
*1437 FILLER_0_11_225
*1438 FILLER_0_11_278
*1439 FILLER_0_11_28
*1440 FILLER_0_11_3
*1441 FILLER_0_11_304
*1442 FILLER_0_11_328
*1443 FILLER_0_11_334
*1444 FILLER_0_11_40
*1445 FILLER_0_11_51
*1446 FILLER_0_11_55
*1447 FILLER_0_11_57
*1448 FILLER_0_11_68
*1449 FILLER_0_11_75
*1450 FILLER_0_11_83
*1451 FILLER_0_12_109
*1452 FILLER_0_12_116
*1453 FILLER_0_12_128
*1454 FILLER_0_12_135
*1455 FILLER_0_12_139
*1456 FILLER_0_12_141
*1457 FILLER_0_12_16
*1458 FILLER_0_12_176
*1459 FILLER_0_12_236
*1460 FILLER_0_12_262
*1461 FILLER_0_12_273
*1462 FILLER_0_12_280
*1463 FILLER_0_12_288
*1464 FILLER_0_12_334
*1465 FILLER_0_12_36
*1466 FILLER_0_12_53
*1467 FILLER_0_12_57
*1468 FILLER_0_12_66
*1469 FILLER_0_12_79
*1470 FILLER_0_12_97
*1471 FILLER_0_13_104
*1472 FILLER_0_13_124
*1473 FILLER_0_13_139
*1474 FILLER_0_13_145
*1475 FILLER_0_13_152
*1476 FILLER_0_13_160
*1477 FILLER_0_13_177
*1478 FILLER_0_13_196
*1479 FILLER_0_13_260
*1480 FILLER_0_13_3
*1481 FILLER_0_13_334
*1482 FILLER_0_13_44
*1483 FILLER_0_13_57
*1484 FILLER_0_13_64
*1485 FILLER_0_13_76
*1486 FILLER_0_13_80
*1487 FILLER_0_13_95
*1488 FILLER_0_14_10
*1489 FILLER_0_14_101
*1490 FILLER_0_14_110
*1491 FILLER_0_14_114
*1492 FILLER_0_14_120
*1493 FILLER_0_14_135
*1494 FILLER_0_14_141
*1495 FILLER_0_14_150
*1496 FILLER_0_14_23
*1497 FILLER_0_14_247
*1498 FILLER_0_14_253
*1499 FILLER_0_14_282
*1500 FILLER_0_14_29
*1501 FILLER_0_14_3
*1502 FILLER_0_14_306
*1503 FILLER_0_14_314
*1504 FILLER_0_14_333
*1505 FILLER_0_14_47
*1506 FILLER_0_14_66
*1507 FILLER_0_14_74
*1508 FILLER_0_14_82
*1509 FILLER_0_14_88
*1510 FILLER_0_15_113
*1511 FILLER_0_15_124
*1512 FILLER_0_15_137
*1513 FILLER_0_15_146
*1514 FILLER_0_15_15
*1515 FILLER_0_15_167
*1516 FILLER_0_15_172
*1517 FILLER_0_15_176
*1518 FILLER_0_15_180
*1519 FILLER_0_15_260
*1520 FILLER_0_15_3
*1521 FILLER_0_15_31
*1522 FILLER_0_15_42
*1523 FILLER_0_15_50
*1524 FILLER_0_15_57
*1525 FILLER_0_15_79
*1526 FILLER_0_15_84
*1527 FILLER_0_15_88
*1528 FILLER_0_15_92
*1529 FILLER_0_16_102
*1530 FILLER_0_16_119
*1531 FILLER_0_16_139
*1532 FILLER_0_16_157
*1533 FILLER_0_16_190
*1534 FILLER_0_16_235
*1535 FILLER_0_16_27
*1536 FILLER_0_16_333
*1537 FILLER_0_16_56
*1538 FILLER_0_16_60
*1539 FILLER_0_16_68
*1540 FILLER_0_16_82
*1541 FILLER_0_17_111
*1542 FILLER_0_17_135
*1543 FILLER_0_17_17
*1544 FILLER_0_17_206
*1545 FILLER_0_17_223
*1546 FILLER_0_17_279
*1547 FILLER_0_17_3
*1548 FILLER_0_17_317
*1549 FILLER_0_17_49
*1550 FILLER_0_17_64
*1551 FILLER_0_17_68
*1552 FILLER_0_17_79
*1553 FILLER_0_17_98
*1554 FILLER_0_18_108
*1555 FILLER_0_18_11
*1556 FILLER_0_18_117
*1557 FILLER_0_18_126
*1558 FILLER_0_18_138
*1559 FILLER_0_18_148
*1560 FILLER_0_18_17
*1561 FILLER_0_18_235
*1562 FILLER_0_18_253
*1563 FILLER_0_18_3
*1564 FILLER_0_18_309
*1565 FILLER_0_18_35
*1566 FILLER_0_18_59
*1567 FILLER_0_18_71
*1568 FILLER_0_18_83
*1569 FILLER_0_18_91
*1570 FILLER_0_19_110
*1571 FILLER_0_19_12
*1572 FILLER_0_19_130
*1573 FILLER_0_19_155
*1574 FILLER_0_19_167
*1575 FILLER_0_19_175
*1576 FILLER_0_19_184
*1577 FILLER_0_19_25
*1578 FILLER_0_19_281
*1579 FILLER_0_19_3
*1580 FILLER_0_19_38
*1581 FILLER_0_19_71
*1582 FILLER_0_19_77
*1583 FILLER_0_19_84
*1584 FILLER_0_1_110
*1585 FILLER_0_1_113
*1586 FILLER_0_1_117
*1587 FILLER_0_1_131
*1588 FILLER_0_1_145
*1589 FILLER_0_1_15
*1590 FILLER_0_1_157
*1591 FILLER_0_1_165
*1592 FILLER_0_1_169