*SPEF "ieee 1481-1999"
*DESIGN "tt_um_wokwi_395054823837887489"
*DATE "10:39:23 Sunday April 14, 2024"
*VENDOR "The OpenROAD Project"
*PROGRAM "OpenROAD"
*VERSION "0889970d1790a2617e69f253221b8bd7626e51dc"
*DESIGN_FLOW "NAME_SCOPE LOCAL" "PIN_CAP NONE"
*DIVIDER /
*DELIMITER :
*BUS_DELIMITER []
*T_UNIT 1 NS
*C_UNIT 1 PF
*R_UNIT 1 OHM
*L_UNIT 1 HENRY

*NAME_MAP
*3 clk
*4 ena
*5 rst_n
*6 ui_in[0]
*7 ui_in[1]
*8 ui_in[2]
*9 ui_in[3]
*10 ui_in[4]
*11 ui_in[5]
*12 ui_in[6]
*13 ui_in[7]
*14 uio_in[0]
*15 uio_in[1]
*16 uio_in[2]
*17 uio_in[3]
*18 uio_in[4]
*19 uio_in[5]
*20 uio_in[6]
*21 uio_in[7]
*22 net3
*23 net4
*24 net5
*25 net6
*26 net7
*27 net8
*28 net9
*29 net10
*30 net11
*31 net12
*32 net13
*33 net14
*34 net15
*35 net16
*36 net17
*37 net18
*38 uo_out[0]
*39 uo_out[1]
*40 uo_out[2]
*41 uo_out[3]
*42 uo_out[4]
*43 uo_out[5]
*44 uo_out[6]
*45 net19
*46 _00_
*47 _01_
*48 _02_
*49 _03_
*50 _04_
*51 _05_
*52 _06_
*53 _07_
*54 _08_
*55 _09_
*56 _10_
*57 _11_
*58 _12_
*59 _13_
*60 _14_
*61 _15_
*62 _16_
*63 _17_
*64 clknet_0_clk
*65 clknet_1_0__leaf_clk
*66 clknet_1_1__leaf_clk
*67 flop1\.q
*68 flop2\.q
*69 flop3\.q
*70 flop5\.q
*71 flop6\.q
*72 flop7\.q
*73 net1
*74 net2
*75 or10\.out
*76 or11\.out
*77 or12\.out
*78 or5\.out
*79 or7\.out
*80 or9\.out
*81 FILLER_0_0_109
*82 FILLER_0_0_113
*83 FILLER_0_0_125
*84 FILLER_0_0_137
*85 FILLER_0_0_141
*86 FILLER_0_0_15
*87 FILLER_0_0_153
*88 FILLER_0_0_165
*89 FILLER_0_0_169
*90 FILLER_0_0_181
*91 FILLER_0_0_193
*92 FILLER_0_0_197
*93 FILLER_0_0_209
*94 FILLER_0_0_221
*95 FILLER_0_0_225
*96 FILLER_0_0_237
*97 FILLER_0_0_249
*98 FILLER_0_0_253
*99 FILLER_0_0_265
*100 FILLER_0_0_27
*101 FILLER_0_0_277
*102 FILLER_0_0_281
*103 FILLER_0_0_29
*104 FILLER_0_0_293
*105 FILLER_0_0_3
*106 FILLER_0_0_305
*107 FILLER_0_0_309
*108 FILLER_0_0_321
*109 FILLER_0_0_333
*110 FILLER_0_0_41
*111 FILLER_0_0_53
*112 FILLER_0_0_57
*113 FILLER_0_0_69
*114 FILLER_0_0_81
*115 FILLER_0_0_85
*116 FILLER_0_0_97
*117 FILLER_0_10_109
*118 FILLER_0_10_121
*119 FILLER_0_10_133
*120 FILLER_0_10_139
*121 FILLER_0_10_141
*122 FILLER_0_10_15
*123 FILLER_0_10_153
*124 FILLER_0_10_165
*125 FILLER_0_10_177
*126 FILLER_0_10_189
*127 FILLER_0_10_195
*128 FILLER_0_10_197
*129 FILLER_0_10_209
*130 FILLER_0_10_221
*131 FILLER_0_10_233
*132 FILLER_0_10_245
*133 FILLER_0_10_251
*134 FILLER_0_10_253
*135 FILLER_0_10_265
*136 FILLER_0_10_27
*137 FILLER_0_10_277
*138 FILLER_0_10_289
*139 FILLER_0_10_29
*140 FILLER_0_10_3
*141 FILLER_0_10_301
*142 FILLER_0_10_307
*143 FILLER_0_10_309
*144 FILLER_0_10_321
*145 FILLER_0_10_333
*146 FILLER_0_10_41
*147 FILLER_0_10_53
*148 FILLER_0_10_65
*149 FILLER_0_10_77
*150 FILLER_0_10_83
*151 FILLER_0_10_85
*152 FILLER_0_10_97
*153 FILLER_0_11_105
*154 FILLER_0_11_111
*155 FILLER_0_11_113
*156 FILLER_0_11_125
*157 FILLER_0_11_137
*158 FILLER_0_11_149
*159 FILLER_0_11_15
*160 FILLER_0_11_161
*161 FILLER_0_11_167
*162 FILLER_0_11_169
*163 FILLER_0_11_181
*164 FILLER_0_11_193
*165 FILLER_0_11_205
*166 FILLER_0_11_217
*167 FILLER_0_11_223
*168 FILLER_0_11_225
*169 FILLER_0_11_237
*170 FILLER_0_11_249
*171 FILLER_0_11_261
*172 FILLER_0_11_27
*173 FILLER_0_11_273
*174 FILLER_0_11_279
*175 FILLER_0_11_281
*176 FILLER_0_11_293
*177 FILLER_0_11_3
*178 FILLER_0_11_305
*179 FILLER_0_11_317
*180 FILLER_0_11_329
*181 FILLER_0_11_39
*182 FILLER_0_11_51
*183 FILLER_0_11_55
*184 FILLER_0_11_57
*185 FILLER_0_11_69
*186 FILLER_0_11_81
*187 FILLER_0_11_93
*188 FILLER_0_12_109
*189 FILLER_0_12_121
*190 FILLER_0_12_133
*191 FILLER_0_12_139
*192 FILLER_0_12_141
*193 FILLER_0_12_15
*194 FILLER_0_12_153
*195 FILLER_0_12_165
*196 FILLER_0_12_177
*197 FILLER_0_12_189
*198 FILLER_0_12_195
*199 FILLER_0_12_197
*200 FILLER_0_12_209
*201 FILLER_0_12_221
*202 FILLER_0_12_233
*203 FILLER_0_12_245
*204 FILLER_0_12_251
*205 FILLER_0_12_253
*206 FILLER_0_12_265
*207 FILLER_0_12_27
*208 FILLER_0_12_277
*209 FILLER_0_12_289
*210 FILLER_0_12_29
*211 FILLER_0_12_3
*212 FILLER_0_12_301
*213 FILLER_0_12_307
*214 FILLER_0_12_309
*215 FILLER_0_12_321
*216 FILLER_0_12_333
*217 FILLER_0_12_41
*218 FILLER_0_12_53
*219 FILLER_0_12_65
*220 FILLER_0_12_77
*221 FILLER_0_12_83
*222 FILLER_0_12_85
*223 FILLER_0_12_97
*224 FILLER_0_13_105
*225 FILLER_0_13_111
*226 FILLER_0_13_113
*227 FILLER_0_13_125
*228 FILLER_0_13_137
*229 FILLER_0_13_149
*230 FILLER_0_13_15
*231 FILLER_0_13_161
*232 FILLER_0_13_167
*233 FILLER_0_13_169
*234 FILLER_0_13_181
*235 FILLER_0_13_193
*236 FILLER_0_13_205
*237 FILLER_0_13_217
*238 FILLER_0_13_223
*239 FILLER_0_13_225
*240 FILLER_0_13_237
*241 FILLER_0_13_249
*242 FILLER_0_13_261
*243 FILLER_0_13_27
*244 FILLER_0_13_273
*245 FILLER_0_13_279
*246 FILLER_0_13_281
*247 FILLER_0_13_293
*248 FILLER_0_13_3
*249 FILLER_0_13_305
*250 FILLER_0_13_317
*251 FILLER_0_13_329
*252 FILLER_0_13_39
*253 FILLER_0_13_51
*254 FILLER_0_13_55
*255 FILLER_0_13_57
*256 FILLER_0_13_69
*257 FILLER_0_13_81
*258 FILLER_0_13_93
*259 FILLER_0_14_109
*260 FILLER_0_14_121
*261 FILLER_0_14_133
*262 FILLER_0_14_139
*263 FILLER_0_14_141
*264 FILLER_0_14_15
*265 FILLER_0_14_153
*266 FILLER_0_14_165
*267 FILLER_0_14_177
*268 FILLER_0_14_189
*269 FILLER_0_14_195
*270 FILLER_0_14_197
*271 FILLER_0_14_209
*272 FILLER_0_14_221
*273 FILLER_0_14_233
*274 FILLER_0_14_245
*275 FILLER_0_14_251
*276 FILLER_0_14_253
*277 FILLER_0_14_265
*278 FILLER_0_14_27
*279 FILLER_0_14_277
*280 FILLER_0_14_289
*281 FILLER_0_14_29
*282 FILLER_0_14_3
*283 FILLER_0_14_301
*284 FILLER_0_14_307
*285 FILLER_0_14_309
*286 FILLER_0_14_321
*287 FILLER_0_14_333
*288 FILLER_0_14_41
*289 FILLER_0_14_53
*290 FILLER_0_14_65
*291 FILLER_0_14_77
*292 FILLER_0_14_83
*293 FILLER_0_14_85
*294 FILLER_0_14_97
*295 FILLER_0_15_105
*296 FILLER_0_15_111
*297 FILLER_0_15_113
*298 FILLER_0_15_125
*299 FILLER_0_15_137
*300 FILLER_0_15_149
*301 FILLER_0_15_15
*302 FILLER_0_15_161
*303 FILLER_0_15_167
*304 FILLER_0_15_169
*305 FILLER_0_15_181
*306 FILLER_0_15_193
*307 FILLER_0_15_205
*308 FILLER_0_15_217
*309 FILLER_0_15_223
*310 FILLER_0_15_225
*311 FILLER_0_15_237
*312 FILLER_0_15_249
*313 FILLER_0_15_261
*314 FILLER_0_15_27
*315 FILLER_0_15_273
*316 FILLER_0_15_279
*317 FILLER_0_15_281
*318 FILLER_0_15_293
*319 FILLER_0_15_3
*320 FILLER_0_15_305
*321 FILLER_0_15_317
*322 FILLER_0_15_329
*323 FILLER_0_15_39
*324 FILLER_0_15_51
*325 FILLER_0_15_55
*326 FILLER_0_15_57
*327 FILLER_0_15_69
*328 FILLER_0_15_81
*329 FILLER_0_15_93
*330 FILLER_0_16_109
*331 FILLER_0_16_121
*332 FILLER_0_16_133
*333 FILLER_0_16_139
*334 FILLER_0_16_141
*335 FILLER_0_16_15
*336 FILLER_0_16_153
*337 FILLER_0_16_165
*338 FILLER_0_16_177
*339 FILLER_0_16_189
*340 FILLER_0_16_195
*341 FILLER_0_16_197
*342 FILLER_0_16_209
*343 FILLER_0_16_221
*344 FILLER_0_16_233
*345 FILLER_0_16_245
*346 FILLER_0_16_251
*347 FILLER_0_16_253
*348 FILLER_0_16_265
*349 FILLER_0_16_27
*350 FILLER_0_16_277
*351 FILLER_0_16_289
*352 FILLER_0_16_29
*353 FILLER_0_16_3
*354 FILLER_0_16_301
*355 FILLER_0_16_307
*356 FILLER_0_16_309
*357 FILLER_0_16_321
*358 FILLER_0_16_333
*359 FILLER_0_16_41
*360 FILLER_0_16_53
*361 FILLER_0_16_65
*362 FILLER_0_16_77
*363 FILLER_0_16_83
*364 FILLER_0_16_85
*365 FILLER_0_16_97
*366 FILLER_0_17_105
*367 FILLER_0_17_111
*368 FILLER_0_17_113
*369 FILLER_0_17_125
*370 FILLER_0_17_137
*371 FILLER_0_17_149
*372 FILLER_0_17_15
*373 FILLER_0_17_161
*374 FILLER_0_17_167
*375 FILLER_0_17_169
*376 FILLER_0_17_181
*377 FILLER_0_17_193
*378 FILLER_0_17_205
*379 FILLER_0_17_217
*380 FILLER_0_17_223
*381 FILLER_0_17_225
*382 FILLER_0_17_237
*383 FILLER_0_17_249
*384 FILLER_0_17_261
*385 FILLER_0_17_27
*386 FILLER_0_17_273
*387 FILLER_0_17_279
*388 FILLER_0_17_281
*389 FILLER_0_17_293
*390 FILLER_0_17_3
*391 FILLER_0_17_305
*392 FILLER_0_17_317
*393 FILLER_0_17_329
*394 FILLER_0_17_39
*395 FILLER_0_17_51
*396 FILLER_0_17_55
*397 FILLER_0_17_57
*398 FILLER_0_17_69
*399 FILLER_0_17_81
*400 FILLER_0_17_93
*401 FILLER_0_18_109
*402 FILLER_0_18_121
*403 FILLER_0_18_133
*404 FILLER_0_18_139
*405 FILLER_0_18_141
*406 FILLER_0_18_15
*407 FILLER_0_18_153
*408 FILLER_0_18_165
*409 FILLER_0_18_177
*410 FILLER_0_18_189
*411 FILLER_0_18_195
*412 FILLER_0_18_197
*413 FILLER_0_18_209
*414 FILLER_0_18_221
*415 FILLER_0_18_233
*416 FILLER_0_18_245
*417 FILLER_0_18_251
*418 FILLER_0_18_253
*419 FILLER_0_18_265
*420 FILLER_0_18_27
*421 FILLER_0_18_277
*422 FILLER_0_18_289
*423 FILLER_0_18_29
*424 FILLER_0_18_3
*425 FILLER_0_18_301
*426 FILLER_0_18_307
*427 FILLER_0_18_309
*428 FILLER_0_18_321
*429 FILLER_0_18_333
*430 FILLER_0_18_41
*431 FILLER_0_18_53
*432 FILLER_0_18_65
*433 FILLER_0_18_77
*434 FILLER_0_18_83
*435 FILLER_0_18_85
*436 FILLER_0_18_97
*437 FILLER_0_19_105
*438 FILLER_0_19_111
*439 FILLER_0_19_113
*440 FILLER_0_19_125
*441 FILLER_0_19_137
*442 FILLER_0_19_149
*443 FILLER_0_19_15
*444 FILLER_0_19_161
*445 FILLER_0_19_167
*446 FILLER_0_19_169
*447 FILLER_0_19_181
*448 FILLER_0_19_193
*449 FILLER_0_19_205
*450 FILLER_0_19_217
*451 FILLER_0_19_223
*452 FILLER_0_19_225
*453 FILLER_0_19_237
*454 FILLER_0_19_249
*455 FILLER_0_19_261
*456 FILLER_0_19_27
*457 FILLER_0_19_273
*458 FILLER_0_19_279
*459 FILLER_0_19_281
*460 FILLER_0_19_293
*461 FILLER_0_19_3
*462 FILLER_0_19_305
*463 FILLER_0_19_317
*464 FILLER_0_19_329
*465 FILLER_0_19_39
*466 FILLER_0_19_51
*467 FILLER_0_19_55
*468 FILLER_0_19_57
*469 FILLER_0_19_69
*470 FILLER_0_19_81
*471 FILLER_0_19_93
*472 FILLER_0_1_105
*473 FILLER_0_1_111
*474 FILLER_0_1_113
*475 FILLER_0_1_125
*476 FILLER_0_1_137
*477 FILLER_0_1_149
*478 FILLER_0_1_15
*479 FILLER_0_1_161
*480 FILLER_0_1_167
*481 FILLER_0_1_169
*482 FILLER_0_1_181
*483 FILLER_0_1_193
*484 FILLER_0_1_205
*485 FILLER_0_1_217
*486 FILLER_0_1_223
*487 FILLER_0_1_225
*488 FILLER_0_1_237
*489 FILLER_0_1_249
*490 FILLER_0_1_261
*491 FILLER_0_1_27
*492 FILLER_0_1_273
*493 FILLER_0_1_279
*494 FILLER_0_1_281
*495 FILLER_0_1_293
*496 FILLER_0_1_3
*497 FILLER_0_1_305
*498 FILLER_0_1_317
*499 FILLER_0_1_329
*500 FILLER_0_1_39
*501 FILLER_0_1_51
*502 FILLER_0_1_55
*503 FILLER_0_1_57
*504 FILLER_0_1_69
*505 FILLER_0_1_81
*506 FILLER_0_1_93
*507 FILLER_0_20_109
*508 FILLER_0_20_121
*509 FILLER_0_20_133
*510 FILLER_0_20_139
*511 FILLER_0_20_141
*512 FILLER_0_20_15
*513 FILLER_0_20_153
*514 FILLER_0_20_165
*515 FILLER_0_20_177
*516 FILLER_0_20_189
*517 FILLER_0_20_195
*518 FILLER_0_20_197
*519 FILLER_0_20_209
*520 FILLER_0_20_221
*521 FILLER_0_20_233
*522 FILLER_0_20_245
*523 FILLER_0_20_251
*524 FILLER_0_20_253
*525 FILLER_0_20_265
*526 FILLER_0_20_27
*527 FILLER_0_20_277
*528 FILLER_0_20_289
*529 FILLER_0_20_29
*530 FILLER_0_20_3
*531 FILLER_0_20_301
*532 FILLER_0_20_307
*533 FILLER_0_20_309
*534 FILLER_0_20_321
*535 FILLER_0_20_333
*536 FILLER_0_20_41
*537 FILLER_0_20_53
*538 FILLER_0_20_65
*539 FILLER_0_20_77
*540 FILLER_0_20_83
*541 FILLER_0_20_85
*542 FILLER_0_20_97
*543 FILLER_0_21_105
*544 FILLER_0_21_111
*545 FILLER_0_21_113
*546 FILLER_0_21_125
*547 FILLER_0_21_137
*548 FILLER_0_21_149
*549 FILLER_0_21_15
*550 FILLER_0_21_161
*551 FILLER_0_21_167
*552 FILLER_0_21_169
*553 FILLER_0_21_181
*554 FILLER_0_21_193
*555 FILLER_0_21_205
*556 FILLER_0_21_217
*557 FILLER_0_21_223
*558 FILLER_0_21_225
*559 FILLER_0_21_237
*560 FILLER_0_21_249
*561 FILLER_0_21_261
*562 FILLER_0_21_27
*563 FILLER_0_21_273
*564 FILLER_0_21_279
*565 FILLER_0_21_281
*566 FILLER_0_21_293
*567 FILLER_0_21_3
*568 FILLER_0_21_305
*569 FILLER_0_21_317
*570 FILLER_0_21_329
*571 FILLER_0_21_39
*572 FILLER_0_21_51
*573 FILLER_0_21_55
*574 FILLER_0_21_57
*575 FILLER_0_21_69
*576 FILLER_0_21_81
*577 FILLER_0_21_93
*578 FILLER_0_22_109
*579 FILLER_0_22_121
*580 FILLER_0_22_133
*581 FILLER_0_22_139
*582 FILLER_0_22_141
*583 FILLER_0_22_15
*584 FILLER_0_22_153
*585 FILLER_0_22_165
*586 FILLER_0_22_177
*587 FILLER_0_22_189
*588 FILLER_0_22_195
*589 FILLER_0_22_197
*590 FILLER_0_22_209
*591 FILLER_0_22_221
*592 FILLER_0_22_233
*593 FILLER_0_22_245
*594 FILLER_0_22_251
*595 FILLER_0_22_253
*596 FILLER_0_22_265
*597 FILLER_0_22_27
*598 FILLER_0_22_277
*599 FILLER_0_22_289
*600 FILLER_0_22_29
*601 FILLER_0_22_3
*602 FILLER_0_22_301
*603 FILLER_0_22_307
*604 FILLER_0_22_309
*605 FILLER_0_22_321
*606 FILLER_0_22_333
*607 FILLER_0_22_41
*608 FILLER_0_22_53
*609 FILLER_0_22_65
*610 FILLER_0_22_77
*611 FILLER_0_22_83
*612 FILLER_0_22_85
*613 FILLER_0_22_97
*614 FILLER_0_23_105
*615 FILLER_0_23_111
*616 FILLER_0_23_113
*617 FILLER_0_23_125
*618 FILLER_0_23_137
*619 FILLER_0_23_149
*620 FILLER_0_23_15
*621 FILLER_0_23_161
*622 FILLER_0_23_167
*623 FILLER_0_23_169
*624 FILLER_0_23_181
*625 FILLER_0_23_193
*626 FILLER_0_23_205
*627 FILLER_0_23_217
*628 FILLER_0_23_223
*629 FILLER_0_23_225
*630 FILLER_0_23_237
*631 FILLER_0_23_249
*632 FILLER_0_23_261
*633 FILLER_0_23_27
*634 FILLER_0_23_273
*635 FILLER_0_23_279
*636 FILLER_0_23_281
*637 FILLER_0_23_293
*638 FILLER_0_23_3
*639 FILLER_0_23_305
*640 FILLER_0_23_317
*641 FILLER_0_23_329
*642 FILLER_0_23_39
*643 FILLER_0_23_51
*644 FILLER_0_23_55
*645 FILLER_0_23_57
*646 FILLER_0_23_69
*647 FILLER_0_23_81
*648 FILLER_0_23_93
*649 FILLER_0_24_109
*650 FILLER_0_24_121
*651 FILLER_0_24_133
*652 FILLER_0_24_139
*653 FILLER_0_24_141
*654 FILLER_0_24_15
*655 FILLER_0_24_153
*656 FILLER_0_24_165
*657 FILLER_0_24_177
*658 FILLER_0_24_189
*659 FILLER_0_24_195
*660 FILLER_0_24_197
*661 FILLER_0_24_209
*662 FILLER_0_24_221
*663 FILLER_0_24_233
*664 FILLER_0_24_245
*665 FILLER_0_24_251
*666 FILLER_0_24_253
*667 FILLER_0_24_265
*668 FILLER_0_24_27
*669 FILLER_0_24_277
*670 FILLER_0_24_289
*671 FILLER_0_24_29
*672 FILLER_0_24_3
*673 FILLER_0_24_301
*674 FILLER_0_24_307
*675 FILLER_0_24_309
*676 FILLER_0_24_321
*677 FILLER_0_24_333
*678 FILLER_0_24_41
*679 FILLER_0_24_53
*680 FILLER_0_24_65
*681 FILLER_0_24_77
*682 FILLER_0_24_83
*683 FILLER_0_24_85
*684 FILLER_0_24_97
*685 FILLER_0_25_105
*686 FILLER_0_25_111
*687 FILLER_0_25_113
*688 FILLER_0_25_125
*689 FILLER_0_25_137
*690 FILLER_0_25_149
*691 FILLER_0_25_15
*692 FILLER_0_25_161
*693 FILLER_0_25_167
*694 FILLER_0_25_169
*695 FILLER_0_25_181
*696 FILLER_0_25_193
*697 FILLER_0_25_205
*698 FILLER_0_25_217
*699 FILLER_0_25_223
*700 FILLER_0_25_225
*701 FILLER_0_25_237
*702 FILLER_0_25_249
*703 FILLER_0_25_261
*704 FILLER_0_25_27
*705 FILLER_0_25_273
*706 FILLER_0_25_279
*707 FILLER_0_25_281
*708 FILLER_0_25_293
*709 FILLER_0_25_3
*710 FILLER_0_25_305
*711 FILLER_0_25_317
*712 FILLER_0_25_329
*713 FILLER_0_25_39
*714 FILLER_0_25_51
*715 FILLER_0_25_55
*716 FILLER_0_25_57
*717 FILLER_0_25_69
*718 FILLER_0_25_81
*719 FILLER_0_25_93
*720 FILLER_0_26_109
*721 FILLER_0_26_121
*722 FILLER_0_26_133
*723 FILLER_0_26_139
*724 FILLER_0_26_141
*725 FILLER_0_26_15
*726 FILLER_0_26_153
*727 FILLER_0_26_165
*728 FILLER_0_26_177
*729 FILLER_0_26_189
*730 FILLER_0_26_195
*731 FILLER_0_26_197
*732 FILLER_0_26_209
*733 FILLER_0_26_221
*734 FILLER_0_26_233
*735 FILLER_0_26_245
*736 FILLER_0_26_251
*737 FILLER_0_26_253
*738 FILLER_0_26_265
*739 FILLER_0_26_27
*740 FILLER_0_26_277
*741 FILLER_0_26_289
*742 FILLER_0_26_29
*743 FILLER_0_26_3
*744 FILLER_0_26_301
*745 FILLER_0_26_307
*746 FILLER_0_26_309
*747 FILLER_0_26_321
*748 FILLER_0_26_333
*749 FILLER_0_26_41
*750 FILLER_0_26_53
*751 FILLER_0_26_65
*752 FILLER_0_26_77
*753 FILLER_0_26_83
*754 FILLER_0_26_85
*755 FILLER_0_26_97
*756 FILLER_0_27_105
*757 FILLER_0_27_111
*758 FILLER_0_27_113
*759 FILLER_0_27_125
*760 FILLER_0_27_137
*761 FILLER_0_27_149
*762 FILLER_0_27_15
*763 FILLER_0_27_161
*764 FILLER_0_27_167
*765 FILLER_0_27_169
*766 FILLER_0_27_181
*767 FILLER_0_27_193
*768 FILLER_0_27_205
*769 FILLER_0_27_217
*770 FILLER_0_27_223
*771 FILLER_0_27_225
*772 FILLER_0_27_237
*773 FILLER_0_27_249
*774 FILLER_0_27_261
*775 FILLER_0_27_27
*776 FILLER_0_27_273
*777 FILLER_0_27_279
*778 FILLER_0_27_281
*779 FILLER_0_27_293
*780 FILLER_0_27_3
*781 FILLER_0_27_305
*782 FILLER_0_27_317
*783 FILLER_0_27_329
*784 FILLER_0_27_39
*785 FILLER_0_27_51
*786 FILLER_0_27_55
*787 FILLER_0_27_57
*788 FILLER_0_27_69
*789 FILLER_0_27_81
*790 FILLER_0_27_93
*791 FILLER_0_28_109
*792 FILLER_0_28_121
*793 FILLER_0_28_133
*794 FILLER_0_28_139
*795 FILLER_0_28_141
*796 FILLER_0_28_15
*797 FILLER_0_28_153
*798 FILLER_0_28_165
*799 FILLER_0_28_177
*800 FILLER_0_28_189
*801 FILLER_0_28_195
*802 FILLER_0_28_197
*803 FILLER_0_28_209
*804 FILLER_0_28_221
*805 FILLER_0_28_233
*806 FILLER_0_28_245
*807 FILLER_0_28_251
*808 FILLER_0_28_253
*809 FILLER_0_28_265
*810 FILLER_0_28_27
*811 FILLER_0_28_277
*812 FILLER_0_28_289
*813 FILLER_0_28_29
*814 FILLER_0_28_3
*815 FILLER_0_28_301
*816 FILLER_0_28_307
*817 FILLER_0_28_309
*818 FILLER_0_28_321
*819 FILLER_0_28_333
*820 FILLER_0_28_41
*821 FILLER_0_28_53
*822 FILLER_0_28_65
*823 FILLER_0_28_77
*824 FILLER_0_28_83
*825 FILLER_0_28_85
*826 FILLER_0_28_97
*827 FILLER_0_29_105
*828 FILLER_0_29_111
*829 FILLER_0_29_113
*830 FILLER_0_29_125
*831 FILLER_0_29_137
*832 FILLER_0_29_149
*833 FILLER_0_29_15
*834 FILLER_0_29_161
*835 FILLER_0_29_167
*836 FILLER_0_29_169
*837 FILLER_0_29_181
*838 FILLER_0_29_193
*839 FILLER_0_29_205
*840 FILLER_0_29_217
*841 FILLER_0_29_223
*842 FILLER_0_29_225
*843 FILLER_0_29_237
*844 FILLER_0_29_249
*845 FILLER_0_29_261
*846 FILLER_0_29_27
*847 FILLER_0_29_273
*848 FILLER_0_29_279
*849 FILLER_0_29_281
*850 FILLER_0_29_293
*851 FILLER_0_29_3
*852 FILLER_0_29_305
*853 FILLER_0_29_317
*854 FILLER_0_29_329
*855 FILLER_0_29_39
*856 FILLER_0_29_51
*857 FILLER_0_29_55
*858 FILLER_0_29_57
*859 FILLER_0_29_69
*860 FILLER_0_29_81
*861 FILLER_0_29_93
*862 FILLER_0_2_109
*863 FILLER_0_2_121
*864 FILLER_0_2_133
*865 FILLER_0_2_139
*866 FILLER_0_2_141
*867 FILLER_0_2_15
*868 FILLER_0_2_153
*869 FILLER_0_2_165
*870 FILLER_0_2_177
*871 FILLER_0_2_189
*872 FILLER_0_2_195
*873 FILLER_0_2_197
*874 FILLER_0_2_209
*875 FILLER_0_2_221
*876 FILLER_0_2_233
*877 FILLER_0_2_245
*878 FILLER_0_2_251
*879 FILLER_0_2_253
*880 FILLER_0_2_265
*881 FILLER_0_2_27
*882 FILLER_0_2_277
*883 FILLER_0_2_289
*884 FILLER_0_2_29
*885 FILLER_0_2_3
*886 FILLER_0_2_301
*887 FILLER_0_2_307
*888 FILLER_0_2_309
*889 FILLER_0_2_321
*890 FILLER_0_2_333
*891 FILLER_0_2_41
*892 FILLER_0_2_53
*893 FILLER_0_2_65
*894 FILLER_0_2_77
*895 FILLER_0_2_83
*896 FILLER_0_2_85
*897 FILLER_0_2_97
*898 FILLER_0_30_109
*899 FILLER_0_30_121
*900 FILLER_0_30_133
*901 FILLER_0_30_139
*902 FILLER_0_30_141
*903 FILLER_0_30_15
*904 FILLER_0_30_153
*905 FILLER_0_30_165
*906 FILLER_0_30_177
*907 FILLER_0_30_189
*908 FILLER_0_30_195
*909 FILLER_0_30_197
*910 FILLER_0_30_209
*911 FILLER_0_30_221
*912 FILLER_0_30_233
*913 FILLER_0_30_245
*914 FILLER_0_30_251
*915 FILLER_0_30_253
*916 FILLER_0_30_265
*917 FILLER_0_30_27
*918 FILLER_0_30_277
*919 FILLER_0_30_289
*920 FILLER_0_30_29
*921 FILLER_0_30_3
*922 FILLER_0_30_301
*923 FILLER_0_30_307
*924 FILLER_0_30_309
*925 FILLER_0_30_321
*926 FILLER_0_30_333
*927 FILLER_0_30_41
*928 FILLER_0_30_53
*929 FILLER_0_30_65
*930 FILLER_0_30_77
*931 FILLER_0_30_83
*932 FILLER_0_30_85
*933 FILLER_0_30_97
*934 FILLER_0_31_105
*935 FILLER_0_31_111
*936 FILLER_0_31_113
*937 FILLER_0_31_125
*938 FILLER_0_31_137
*939 FILLER_0_31_149
*940 FILLER_0_31_15
*941 FILLER_0_31_161
*942 FILLER_0_31_167
*943 FILLER_0_31_169
*944 FILLER_0_31_181
*945 FILLER_0_31_193
*946 FILLER_0_31_205
*947 FILLER_0_31_217
*948 FILLER_0_31_223
*949 FILLER_0_31_225
*950 FILLER_0_31_237
*951 FILLER_0_31_249
*952 FILLER_0_31_261
*953 FILLER_0_31_27
*954 FILLER_0_31_273
*955 FILLER_0_31_279
*956 FILLER_0_31_281
*957 FILLER_0_31_293
*958 FILLER_0_31_3
*959 FILLER_0_31_305
*960 FILLER_0_31_317
*961 FILLER_0_31_329
*962 FILLER_0_31_39
*963 FILLER_0_31_51
*964 FILLER_0_31_55
*965 FILLER_0_31_57
*966 FILLER_0_31_69
*967 FILLER_0_31_81
*968 FILLER_0_31_93
*969 FILLER_0_32_109
*970 FILLER_0_32_121
*971 FILLER_0_32_133
*972 FILLER_0_32_139
*973 FILLER_0_32_141
*974 FILLER_0_32_15
*975 FILLER_0_32_153
*976 FILLER_0_32_165
*977 FILLER_0_32_177
*978 FILLER_0_32_189
*979 FILLER_0_32_195
*980 FILLER_0_32_197
*981 FILLER_0_32_209
*982 FILLER_0_32_221
*983 FILLER_0_32_233
*984 FILLER_0_32_245
*985 FILLER_0_32_251
*986 FILLER_0_32_253
*987 FILLER_0_32_265
*988 FILLER_0_32_27
*989 FILLER_0_32_277
*990 FILLER_0_32_289
*991 FILLER_0_32_29
*992 FILLER_0_32_3
*993 FILLER_0_32_301
*994 FILLER_0_32_307
*995 FILLER_0_32_309
*996 FILLER_0_32_321
*997 FILLER_0_32_333
*998 FILLER_0_32_41
*999 FILLER_0_32_53
*1000 FILLER_0_32_65
*1001 FILLER_0_32_77
*1002 FILLER_0_32_83
*1003 FILLER_0_32_85
*1004 FILLER_0_32_97
*1005 FILLER_0_33_105
*1006 FILLER_0_33_111
*1007 FILLER_0_33_113
*1008 FILLER_0_33_125
*1009 FILLER_0_33_137
*1010 FILLER_0_33_149
*1011 FILLER_0_33_15
*1012 FILLER_0_33_161
*1013 FILLER_0_33_167
*1014 FILLER_0_33_169
*1015 FILLER_0_33_181
*1016 FILLER_0_33_193
*1017 FILLER_0_33_205
*1018 FILLER_0_33_217
*1019 FILLER_0_33_223
*1020 FILLER_0_33_225
*1021 FILLER_0_33_237
*1022 FILLER_0_33_249
*1023 FILLER_0_33_261
*1024 FILLER_0_33_27
*1025 FILLER_0_33_273
*1026 FILLER_0_33_279
*1027 FILLER_0_33_281
*1028 FILLER_0_33_293
*1029 FILLER_0_33_3
*1030 FILLER_0_33_305
*1031 FILLER_0_33_317
*1032 FILLER_0_33_329
*1033 FILLER_0_33_39
*1034 FILLER_0_33_51
*1035 FILLER_0_33_55
*1036 FILLER_0_33_57
*1037 FILLER_0_33_69
*1038 FILLER_0_33_81
*1039 FILLER_0_33_93
*1040 FILLER_0_34_109
*1041 FILLER_0_34_121
*1042 FILLER_0_34_133
*1043 FILLER_0_34_139
*1044 FILLER_0_34_141
*1045 FILLER_0_34_15
*1046 FILLER_0_34_153
*1047 FILLER_0_34_165
*1048 FILLER_0_34_177
*1049 FILLER_0_34_189
*1050 FILLER_0_34_195
*1051 FILLER_0_34_197
*1052 FILLER_0_34_209
*1053 FILLER_0_34_213
*1054 FILLER_0_34_237
*1055 FILLER_0_34_249
*1056 FILLER_0_34_253
*1057 FILLER_0_34_265
*1058 FILLER_0_34_27
*1059 FILLER_0_34_277
*1060 FILLER_0_34_289
*1061 FILLER_0_34_29
*1062 FILLER_0_34_3
*1063 FILLER_0_34_301
*1064 FILLER_0_34_307
*1065 FILLER_0_34_309
*1066 FILLER_0_34_321
*1067 FILLER_0_34_333
*1068 FILLER_0_34_41
*1069 FILLER_0_34_53
*1070 FILLER_0_34_65
*1071 FILLER_0_34_77
*1072 FILLER_0_34_83
*1073 FILLER_0_34_85
*1074 FILLER_0_34_97
*1075 FILLER_0_35_105
*1076 FILLER_0_35_111
*1077 FILLER_0_35_113
*1078 FILLER_0_35_125
*1079 FILLER_0_35_137
*1080 FILLER_0_35_149
*1081 FILLER_0_35_15
*1082 FILLER_0_35_161
*1083 FILLER_0_35_167
*1084 FILLER_0_35_169
*1085 FILLER_0_35_181
*1086 FILLER_0_35_193
*1087 FILLER_0_35_205
*1088 FILLER_0_35_223
*1089 FILLER_0_35_27
*1090 FILLER_0_35_274
*1091 FILLER_0_35_281
*1092 FILLER_0_35_293
*1093 FILLER_0_35_3
*1094 FILLER_0_35_305
*1095 FILLER_0_35_317
*1096 FILLER_0_35_329
*1097 FILLER_0_35_39
*1098 FILLER_0_35_51
*1099 FILLER_0_35_55
*1100 FILLER_0_35_57
*1101 FILLER_0_35_69
*1102 FILLER_0_35_81
*1103 FILLER_0_35_93
*1104 FILLER_0_36_109
*1105 FILLER_0_36_121
*1106 FILLER_0_36_133
*1107 FILLER_0_36_139
*1108 FILLER_0_36_141
*1109 FILLER_0_36_15
*1110 FILLER_0_36_153
*1111 FILLER_0_36_165
*1112 FILLER_0_36_173
*1113 FILLER_0_36_178
*1114 FILLER_0_36_184
*1115 FILLER_0_36_188
*1116 FILLER_0_36_205
*1117 FILLER_0_36_211
*1118 FILLER_0_36_232
*1119 FILLER_0_36_242
*1120 FILLER_0_36_248
*1121 FILLER_0_36_27
*1122 FILLER_0_36_282
*1123 FILLER_0_36_29
*1124 FILLER_0_36_294
*1125 FILLER_0_36_3
*1126 FILLER_0_36_306
*1127 FILLER_0_36_309
*1128 FILLER_0_36_321
*1129 FILLER_0_36_333
*1130 FILLER_0_36_41
*1131 FILLER_0_36_53
*1132 FILLER_0_36_65
*1133 FILLER_0_36_77
*1134 FILLER_0_36_83
*1135 FILLER_0_36_85
*1136 FILLER_0_36_97
*1137 FILLER_0_37_105
*1138 FILLER_0_37_111
*1139 FILLER_0_37_113
*1140 FILLER_0_37_125
*1141 FILLER_0_37_137
*1142 FILLER_0_37_149
*1143 FILLER_0_37_15
*1144 FILLER_0_37_161
*1145 FILLER_0_37_167
*1146 FILLER_0_37_169
*1147 FILLER_0_37_186
*1148 FILLER_0_37_205
*1149 FILLER_0_37_211
*1150 FILLER_0_37_221
*1151 FILLER_0_37_225
*1152 FILLER_0_37_233
*1153 FILLER_0_37_258
*1154 FILLER_0_37_27
*1155 FILLER_0_37_279
*1156 FILLER_0_37_284
*1157 FILLER_0_37_296
*1158 FILLER_0_37_3
*1159 FILLER_0_37_308
*1160 FILLER_0_37_320
*1161 FILLER_0_37_332
*1162 FILLER_0_37_39
*1163 FILLER_0_37_51
*1164 FILLER_0_37_55
*1165 FILLER_0_37_57
*1166 FILLER_0_37_69
*1167 FILLER_0_37_81
*1168 FILLER_0_37_93
*1169 FILLER_0_38_10
*1170 FILLER_0_38_102
*1171 FILLER_0_38_106
*1172 FILLER_0_38_110
*1173 FILLER_0_38_113
*1174 FILLER_0_38_118
*1175 FILLER_0_38_122
*1176 FILLER_0_38_126
*1177 FILLER_0_38_130
*1178 FILLER_0_38_134
*1179 FILLER_0_38_14
*1180 FILLER_0_38_141
*1181 FILLER_0_38_149
*1182 FILLER_0_38_154
*1183 FILLER_0_38_162
*1184 FILLER_0_38_169
*1185 FILLER_0_38_174
*1186 FILLER_0_38_18
*1187 FILLER_0_38_187
*1188 FILLER_0_38_195
*1189 FILLER_0_38_206
*1190 FILLER_0_38_212
*1191 FILLER_0_38_216
*1192 FILLER_0_38_22
*1193 FILLER_0_38_225
*1194 FILLER_0_38_237
*1195 FILLER_0_38_250
*1196 FILLER_0_38_253
*1197 FILLER_0_38_301
*1198 FILLER_0_38_307
*1199 FILLER_0_38_309
*1200 FILLER_0_38_319
*1201 FILLER_0_38_32
*1202 FILLER_0_38_327
*1203 FILLER_0_38_38
*1204 FILLER_0_38_42
*1205 FILLER_0_38_46
*1206 FILLER_0_38_50
*1207 FILLER_0_38_54
*1208 FILLER_0_38_57
*1209 FILLER_0_38_6
*1210 FILLER_0_38_62
*1211 FILLER_0_38_66
*1212 FILLER_0_38_70
*1213 FILLER_0_38_74
*1214 FILLER_0_38_78
*1215 FILLER_0_38_88
*1216 FILLER_0_38_94
*1217 FILLER_0_38_98
*1218 FILLER_0_3_105
*1219 FILLER_0_3_111
*1220 FILLER_0_3_113
*1221 FILLER_0_3_125
*1222 FILLER_0_3_137
*1223 FILLER_0_3_149
*1224 FILLER_0_3_15
*1225 FILLER_0_3_161
*1226 FILLER_0_3_167
*1227 FILLER_0_3_169
*1228 FILLER_0_3_181
*1229 FILLER_0_3_193
*1230 FILLER_0_3_205
*1231 FILLER_0_3_217
*1232 FILLER_0_3_223
*1233 FILLER_0_3_225
*1234 FILLER_0_3_237
*1235 FILLER_0_3_249
*1236 FILLER_0_3_261
*1237 FILLER_0_3_27
*1238 FILLER_0_3_273
*1239 FILLER_0_3_279
*1240 FILLER_0_3_281
*1241 FILLER_0_3_293
*1242 FILLER_0_3_3
*1243 FILLER_0_3_305
*1244 FILLER_0_3_317
*1245 FILLER_0_3_329
*1246 FILLER_0_3_39
*1247 FILLER_0_3_51
*1248 FILLER_0_3_55
*1249 FILLER_0_3_57
*1250 FILLER_0_3_69
*1251 FILLER_0_3_81
*1252 FILLER_0_3_93
*1253 FILLER_0_4_109
*1254 FILLER_0_4_121
*1255 FILLER_0_4_133
*1256 FILLER_0_4_139
*1257 FILLER_0_4_141
*1258 FILLER_0_4_15
*1259 FILLER_0_4_153
*1260 FILLER_0_4_165
*1261 FILLER_0_4_177
*1262 FILLER_0_4_189
*1263 FILLER_0_4_195
*1264 FILLER_0_4_197
*1265 FILLER_0_4_209
*1266 FILLER_0_4_221
*1267 FILLER_0_4_233
*1268 FILLER_0_4_245
*1269 FILLER_0_4_251
*1270 FILLER_0_4_253
*1271 FILLER_0_4_265
*1272 FILLER_0_4_27
*1273 FILLER_0_4_277
*1274 FILLER_0_4_289
*1275 FILLER_0_4_29
*1276 FILLER_0_4_3
*1277 FILLER_0_4_301
*1278 FILLER_0_4_307
*1279 FILLER_0_4_309
*1280 FILLER_0_4_321
*1281 FILLER_0_4_333
*1282 FILLER_0_4_41
*1283 FILLER_0_4_53
*1284 FILLER_0_4_65
*1285 FILLER_0_4_77
*1286 FILLER_0_4_83
*1287 FILLER_0_4_85
*1288 FILLER_0_4_97
*1289 FILLER_0_5_105
*1290 FILLER_0_5_111
*1291 FILLER_0_5_113
*1292 FILLER_0_5_125
*1293 FILLER_0_5_137
*1294 FILLER_0_5_149
*1295 FILLER_0_5_15
*1296 FILLER_0_5_161
*1297 FILLER_0_5_167
*1298 FILLER_0_5_169
*1299 FILLER_0_5_181
*1300 FILLER_0_5_193
*1301 FILLER_0_5_205
*1302 FILLER_0_5_217
*1303 FILLER_0_5_223
*1304 FILLER_0_5_225
*1305 FILLER_0_5_237
*1306 FILLER_0_5_249
*1307 FILLER_0_5_261
*1308 FILLER_0_5_27
*1309 FILLER_0_5_273
*1310 FILLER_0_5_279
*1311 FILLER_0_5_281
*1312 FILLER_0_5_293
*1313 FILLER_0_5_3
*1314 FILLER_0_5_305
*1315 FILLER_0_5_317
*1316 FILLER_0_5_329
*1317 FILLER_0_5_39
*1318 FILLER_0_5_51
*1319 FILLER_0_5_55
*1320 FILLER_0_5_57
*1321 FILLER_0_5_69
*1322 FILLER_0_5_81
*1323 FILLER_0_5_93
*1324 FILLER_0_6_109
*1325 FILLER_0_6_121
*1326 FILLER_0_6_133
*1327 FILLER_0_6_139
*1328 FILLER_0_6_141
*1329 FILLER_0_6_15
*1330 FILLER_0_6_153
*1331 FILLER_0_6_165
*1332 FILLER_0_6_177
*1333 FILLER_0_6_189
*1334 FILLER_0_6_195
*1335 FILLER_0_6_197
*1336 FILLER_0_6_209
*1337 FILLER_0_6_221
*1338 FILLER_0_6_233
*1339 FILLER_0_6_245
*1340 FILLER_0_6_251
*1341 FILLER_0_6_253
*1342 FILLER_0_6_265
*1343 FILLER_0_6_27
*1344 FILLER_0_6_277
*1345 FILLER_0_6_289
*1346 FILLER_0_6_29
*1347 FILLER_0_6_3
*1348 FILLER_0_6_301
*1349 FILLER_0_6_307
*1350 FILLER_0_6_309
*1351 FILLER_0_6_321
*1352 FILLER_0_6_333
*1353 FILLER_0_6_41
*1354 FILLER_0_6_53
*1355 FILLER_0_6_65
*1356 FILLER_0_6_77
*1357 FILLER_0_6_83
*1358 FILLER_0_6_85
*1359 FILLER_0_6_97
*1360 FILLER_0_7_105
*1361 FILLER_0_7_111
*1362 FILLER_0_7_113
*1363 FILLER_0_7_125
*1364 FILLER_0_7_137
*1365 FILLER_0_7_149
*1366 FILLER_0_7_15
*1367 FILLER_0_7_161
*1368 FILLER_0_7_167
*1369 FILLER_0_7_169
*1370 FILLER_0_7_181
*1371 FILLER_0_7_193
*1372 FILLER_0_7_205
*1373 FILLER_0_7_217
*1374 FILLER_0_7_223
*1375 FILLER_0_7_225
*1376 FILLER_0_7_237
*1377 FILLER_0_7_249
*1378 FILLER_0_7_261
*1379 FILLER_0_7_27
*1380 FILLER_0_7_273
*1381 FILLER_0_7_279
*1382 FILLER_0_7_281
*1383 FILLER_0_7_293
*1384 FILLER_0_7_3
*1385 FILLER_0_7_305
*1386 FILLER_0_7_317
*1387 FILLER_0_7_329
*1388 FILLER_0_7_39
*1389 FILLER_0_7_51
*1390 FILLER_0_7_55
*1391 FILLER_0_7_57
*1392 FILLER_0_7_69
*1393 FILLER_0_7_81
*1394 FILLER_0_7_93
*1395 FILLER_0_8_109
*1396 FILLER_0_8_121
*1397 FILLER_0_8_133
*1398 FILLER_0_8_139
*1399 FILLER_0_8_141
*1400 FILLER_0_8_15
*1401 FILLER_0_8_153
*1402 FILLER_0_8_165
*1403 FILLER_0_8_177
*1404 FILLER_0_8_189
*1405 FILLER_0_8_195
*1406 FILLER_0_8_197
*1407 FILLER_0_8_209
*1408 FILLER_0_8_221
*1409 FILLER_0_8_233
*1410 FILLER_0_8_245
*1411 FILLER_0_8_251
*1412 FILLER_0_8_253
*1413 FILLER_0_8_265
*1414 FILLER_0_8_27
*1415 FILLER_0_8_277
*1416 FILLER_0_8_289
*1417 FILLER_0_8_29
*1418 FILLER_0_8_3
*1419 FILLER_0_8_301
*1420 FILLER_0_8_307
*1421 FILLER_0_8_309
*1422 FILLER_0_8_321
*1423 FILLER_0_8_333
*1424 FILLER_0_8_41
*1425 FILLER_0_8_53
*1426 FILLER_0_8_65
*1427 FILLER_0_8_77
*1428 FILLER_0_8_83
*1429 FILLER_0_8_85
*1430 FILLER_0_8_97
*1431 FILLER_0_9_105
*1432 FILLER_0_9_111
*1433 FILLER_0_9_113
*1434 FILLER_0_9_125
*1435 FILLER_0_9_137
*1436 FILLER_0_9_149
*1437 FILLER_0_9_15
*1438 FILLER_0_9_161
*1439 FILLER_0_9_167
*1440 FILLER_0_9_169
*1441 FILLER_0_9_181
*1442 FILLER_0_9_193
*1443 FILLER_0_9_205
*1444 FILLER_0_9_217
*1445 FILLER_0_9_223
*1446 FILLER_0_9_225
*1447 FILLER_0_9_237
*1448 FILLER_0_9_249
*1449 FILLER_0_9_261
*1450 FILLER_0_9_27
*1451 FILLER_0_9_273
*1452 FILLER_0_9_279
*1453 FILLER_0_9_281
*1454 FILLER_0_9_293
*1455 FILLER_0_9_3
*1456 FILLER_0_9_305
*1457 FILLER_0_9_317
*1458 FILLER_0_9_329
*1459 FILLER_0_9_39
*1460 FILLER_0_9_51
*1461 FILLER_0_9_55
*1462 FILLER_0_9_57
*1463 FILLER_0_9_69
*1464 FILLER_0_9_81
*1465 FILLER_0_9_93