*SPEF "ieee 1481-1999"
*DESIGN "tt_um_mw73_pmic"
*DATE "20:13:20 Friday April 12, 2024"
*VENDOR "The OpenROAD Project"
*PROGRAM "OpenROAD"
*VERSION "0889970d1790a2617e69f253221b8bd7626e51dc"
*DESIGN_FLOW "NAME_SCOPE LOCAL" "PIN_CAP NONE"
*DIVIDER /
*DELIMITER :
*BUS_DELIMITER []
*T_UNIT 1 NS
*C_UNIT 1 PF
*R_UNIT 1 OHM
*L_UNIT 1 HENRY

*NAME_MAP
*3 clk
*4 ena
*5 rst_n
*6 ui_in[0]
*7 ui_in[1]
*8 ui_in[2]
*9 ui_in[3]
*10 ui_in[4]
*11 ui_in[5]
*12 ui_in[6]
*13 ui_in[7]
*14 uio_in[0]
*15 uio_in[1]
*16 uio_in[2]
*17 uio_in[3]
*18 uio_in[4]
*19 uio_in[5]
*20 uio_in[6]
*21 uio_in[7]
*22 net47
*23 net48
*24 net49
*25 net50
*26 net51
*27 net52
*28 net53
*29 net54
*30 net55
*31 net56
*32 net57
*33 net58
*34 net59
*35 net60
*36 net61
*37 net62
*38 uo_out[0]
*39 uo_out[1]
*40 uo_out[2]
*41 uo_out[3]
*42 net63
*43 net64
*44 net65
*45 net66
*46 _000_
*47 _001_
*48 _002_
*49 _003_
*50 _004_
*51 _005_
*52 _006_
*53 _007_
*54 _008_
*55 _009_
*56 _010_
*57 _011_
*58 _012_
*59 _023_
*60 _049_
*61 _066_
*62 _067_
*63 _068_
*64 _069_
*65 _070_
*66 _071_
*67 _072_
*68 _073_
*69 _074_
*70 _075_
*71 _076_
*72 _077_
*73 _078_
*74 _079_
*75 _080_
*76 _081_
*77 _082_
*78 _083_
*79 _084_
*80 _085_
*81 _086_
*82 _087_
*83 _088_
*84 _089_
*85 _090_
*86 _091_
*87 _092_
*88 _093_
*89 _094_
*90 _095_
*91 _096_
*92 _097_
*93 _098_
*94 _099_
*95 _100_
*96 _101_
*97 _102_
*98 _103_
*99 _104_
*100 _105_
*101 _106_
*102 _107_
*103 _108_
*104 _109_
*105 _110_
*106 _111_
*107 _112_
*108 _113_
*109 _114_
*110 _115_
*111 _116_
*112 _117_
*113 _118_
*114 _119_
*115 _120_
*116 _121_
*117 _122_
*118 _123_
*119 _124_
*120 _125_
*121 _126_
*122 _127_
*123 _128_
*124 _129_
*125 _130_
*126 _131_
*127 _132_
*128 _133_
*129 _134_
*130 _135_
*131 _136_
*132 _137_
*133 _138_
*134 _139_
*135 _140_
*136 _141_
*137 _142_
*138 _143_
*139 _154_
*140 _155_
*141 _156_
*142 _157_
*143 _158_
*144 _159_
*145 _160_
*146 _161_
*147 _162_
*148 _163_
*149 _164_
*150 _165_
*151 _166_
*152 _167_
*153 _168_
*154 _169_
*155 _170_
*156 _171_
*157 _172_
*158 _173_
*159 _174_
*160 _175_
*161 _176_
*162 _177_
*163 _178_
*164 _179_
*165 _180_
*166 _181_
*167 _182_
*168 _183_
*169 _184_
*170 _185_
*171 _186_
*172 _187_
*173 _188_
*174 _189_
*175 _190_
*176 _191_
*177 _192_
*178 _193_
*179 _194_
*180 _195_
*181 _196_
*182 _197_
*183 _198_
*184 _199_
*185 _200_
*186 _201_
*187 _202_
*188 _203_
*189 _204_
*190 _205_
*191 _206_
*192 _207_
*193 _208_
*194 _209_
*195 _210_
*196 _211_
*197 _212_
*198 _213_
*199 _214_
*200 _215_
*201 _216_
*202 _217_
*203 _218_
*204 _219_
*205 _220_
*206 _221_
*207 _222_
*208 _223_
*209 _224_
*210 _225_
*211 _226_
*212 _227_
*213 _228_
*214 _229_
*215 _230_
*216 _231_
*217 _232_
*218 _233_
*219 _234_
*220 _235_
*221 _236_
*222 _237_
*223 _238_
*224 _239_
*225 _240_
*226 _241_
*227 _242_
*228 _243_
*229 _244_
*230 _245_
*231 _246_
*232 _247_
*233 _248_
*234 _249_
*235 _250_
*236 _251_
*237 _252_
*238 _253_
*239 _254_
*240 _255_
*241 _256_
*242 _257_
*243 _258_
*244 _259_
*245 _260_
*246 _261_
*247 _262_
*248 _263_
*249 _264_
*250 _265_
*251 _266_
*252 _267_
*253 _268_
*254 _269_
*255 _270_
*256 _271_
*257 _272_
*258 _273_
*259 _274_
*260 _275_
*261 _276_
*262 _277_
*263 _278_
*264 _279_
*265 _280_
*266 _281_
*267 _282_
*268 _283_
*269 _284_
*270 _285_
*271 _286_
*272 _287_
*273 _288_
*274 _289_
*275 _290_
*276 _291_
*277 _292_
*278 _293_
*279 _294_
*280 _295_
*281 _296_
*282 _297_
*283 _298_
*284 _299_
*285 _300_
*286 _301_
*287 _302_
*288 _303_
*289 _304_
*290 _305_
*291 _306_
*292 _307_
*293 _308_
*294 _309_
*295 _310_
*296 _311_
*297 _312_
*298 _313_
*299 _314_
*300 _315_
*301 _316_
*302 _317_
*303 _318_
*304 _319_
*305 _320_
*306 _321_
*307 _322_
*308 _323_
*309 _324_
*310 _325_
*311 _326_
*312 _327_
*313 _328_
*314 _329_
*315 _330_
*316 _331_
*317 _332_
*318 _333_
*319 _334_
*320 _335_
*321 _336_
*322 _337_
*323 _338_
*324 _339_
*325 _340_
*326 _341_
*327 _342_
*328 _343_
*329 _344_
*330 _345_
*331 _346_
*332 _347_
*333 _348_
*334 _349_
*335 _350_
*336 _351_
*337 _352_
*338 _353_
*339 _354_
*340 _355_
*341 _356_
*342 _357_
*343 _358_
*344 _359_
*345 _360_
*346 _361_
*347 _362_
*348 _363_
*349 _364_
*350 _365_
*351 _366_
*352 _367_
*353 _368_
*354 _369_
*355 _370_
*356 _371_
*357 _372_
*358 _373_
*359 _374_
*360 _375_
*361 _376_
*362 _377_
*363 _378_
*364 _379_
*365 _380_
*366 _381_
*367 _382_
*368 _383_
*369 _384_
*370 _385_
*371 _386_
*372 _387_
*373 _388_
*374 _389_
*375 _390_
*376 _391_
*377 _392_
*378 _393_
*379 _394_
*380 _395_
*381 _396_
*382 _397_
*383 _398_
*384 _399_
*385 _400_
*386 _401_
*387 _402_
*388 _403_
*389 _404_
*390 _405_
*391 _406_
*392 _407_
*393 clknet_0_clk
*394 clknet_2_0__leaf_clk
*395 clknet_2_1__leaf_clk
*396 clknet_2_2__leaf_clk
*397 clknet_2_3__leaf_clk
*398 net1
*399 net10
*400 net100
*401 net101
*402 net102
*403 net103
*404 net104
*405 net105
*406 net106
*407 net107
*408 net108
*409 net109
*410 net11
*411 net110
*412 net111
*413 net112
*414 net113
*415 net114
*416 net115
*417 net116
*418 net117
*419 net118
*420 net119
*421 net12
*422 net120
*423 net121
*424 net122
*425 net123
*426 net124
*427 net125
*428 net126
*429 net127
*430 net128
*431 net129
*432 net13
*433 net14
*434 net15
*435 net16
*436 net17
*437 net18
*438 net19
*439 net2
*440 net20
*441 net21
*442 net22
*443 net23
*444 net24
*445 net25
*446 net26
*447 net27
*448 net28
*449 net29
*450 net3
*451 net30
*452 net31
*453 net32
*454 net33
*455 net34
*456 net35
*457 net36
*458 net37
*459 net38
*460 net39
*461 net4
*462 net40
*463 net41
*464 net42
*465 net43
*466 net44
*467 net45
*468 net46
*469 net5
*470 net6
*471 net67
*472 net68
*473 net69
*474 net7
*475 net70
*476 net71
*477 net72
*478 net73
*479 net74
*480 net75
*481 net76
*482 net77
*483 net78
*484 net79
*485 net8
*486 net80
*487 net81
*488 net82
*489 net83
*490 net84
*491 net85
*492 net86
*493 net87
*494 net88
*495 net89
*496 net9
*497 net90
*498 net91
*499 net92
*500 net93
*501 net94
*502 net95
*503 net96
*504 net97
*505 net98
*506 net99
*507 pmic\.convStart
*508 pmic\.rd_cs
*509 pmic\.slowClk\.counter\[0\]
*510 pmic\.slowClk\.counter\[10\]
*511 pmic\.slowClk\.counter\[11\]
*512 pmic\.slowClk\.counter\[12\]
*513 pmic\.slowClk\.counter\[13\]
*514 pmic\.slowClk\.counter\[14\]
*515 pmic\.slowClk\.counter\[15\]
*516 pmic\.slowClk\.counter\[16\]
*517 pmic\.slowClk\.counter\[17\]
*518 pmic\.slowClk\.counter\[18\]
*519 pmic\.slowClk\.counter\[19\]
*520 pmic\.slowClk\.counter\[1\]
*521 pmic\.slowClk\.counter\[20\]
*522 pmic\.slowClk\.counter\[21\]
*523 pmic\.slowClk\.counter\[22\]
*524 pmic\.slowClk\.counter\[23\]
*525 pmic\.slowClk\.counter\[24\]
*526 pmic\.slowClk\.counter\[25\]
*527 pmic\.slowClk\.counter\[26\]
*528 pmic\.slowClk\.counter\[27\]
*529 pmic\.slowClk\.counter\[28\]
*530 pmic\.slowClk\.counter\[29\]
*531 pmic\.slowClk\.counter\[2\]
*532 pmic\.slowClk\.counter\[30\]
*533 pmic\.slowClk\.counter\[31\]
*534 pmic\.slowClk\.counter\[32\]
*535 pmic\.slowClk\.counter\[33\]
*536 pmic\.slowClk\.counter\[34\]
*537 pmic\.slowClk\.counter\[35\]
*538 pmic\.slowClk\.counter\[36\]
*539 pmic\.slowClk\.counter\[3\]
*540 pmic\.slowClk\.counter\[4\]
*541 pmic\.slowClk\.counter\[5\]
*542 pmic\.slowClk\.counter\[6\]
*543 pmic\.slowClk\.counter\[7\]
*544 pmic\.slowClk\.counter\[8\]
*545 pmic\.slowClk\.counter\[9\]
*546 pmic\.slowClk\.slow_clk
*547 pmic\.syncPWM\.adcCounter\[0\]
*548 pmic\.syncPWM\.adcCounter\[1\]
*549 pmic\.syncPWM\.adcCounter\[2\]
*550 pmic\.syncPWM\.adcCounter\[3\]
*551 pmic\.syncPWM\.adcCounter\[4\]
*552 pmic\.syncPWM\.adcCounter\[5\]
*553 pmic\.syncPWM\.adcCounter\[6\]
*554 pmic\.syncPWM\.adcCounter\[7\]
*555 pmic\.syncPWM\.adcHeartBeatCounter\[0\]
*556 pmic\.syncPWM\.adcHeartBeatCounter\[10\]
*557 pmic\.syncPWM\.adcHeartBeatCounter\[11\]
*558 pmic\.syncPWM\.adcHeartBeatCounter\[12\]
*559 pmic\.syncPWM\.adcHeartBeatCounter\[13\]
*560 pmic\.syncPWM\.adcHeartBeatCounter\[14\]
*561 pmic\.syncPWM\.adcHeartBeatCounter\[15\]
*562 pmic\.syncPWM\.adcHeartBeatCounter\[16\]
*563 pmic\.syncPWM\.adcHeartBeatCounter\[17\]
*564 pmic\.syncPWM\.adcHeartBeatCounter\[18\]
*565 pmic\.syncPWM\.adcHeartBeatCounter\[19\]
*566 pmic\.syncPWM\.adcHeartBeatCounter\[1\]
*567 pmic\.syncPWM\.adcHeartBeatCounter\[20\]
*568 pmic\.syncPWM\.adcHeartBeatCounter\[21\]
*569 pmic\.syncPWM\.adcHeartBeatCounter\[22\]
*570 pmic\.syncPWM\.adcHeartBeatCounter\[23\]
*571 pmic\.syncPWM\.adcHeartBeatCounter\[24\]
*572 pmic\.syncPWM\.adcHeartBeatCounter\[25\]
*573 pmic\.syncPWM\.adcHeartBeatCounter\[26\]
*574 pmic\.syncPWM\.adcHeartBeatCounter\[27\]
*575 pmic\.syncPWM\.adcHeartBeatCounter\[28\]
*576 pmic\.syncPWM\.adcHeartBeatCounter\[29\]
*577 pmic\.syncPWM\.adcHeartBeatCounter\[2\]
*578 pmic\.syncPWM\.adcHeartBeatCounter\[30\]
*579 pmic\.syncPWM\.adcHeartBeatCounter\[31\]
*580 pmic\.syncPWM\.adcHeartBeatCounter\[32\]
*581 pmic\.syncPWM\.adcHeartBeatCounter\[33\]
*582 pmic\.syncPWM\.adcHeartBeatCounter\[34\]
*583 pmic\.syncPWM\.adcHeartBeatCounter\[35\]
*584 pmic\.syncPWM\.adcHeartBeatCounter\[36\]
*585 pmic\.syncPWM\.adcHeartBeatCounter\[3\]
*586 pmic\.syncPWM\.adcHeartBeatCounter\[4\]
*587 pmic\.syncPWM\.adcHeartBeatCounter\[5\]
*588 pmic\.syncPWM\.adcHeartBeatCounter\[6\]
*589 pmic\.syncPWM\.adcHeartBeatCounter\[7\]
*590 pmic\.syncPWM\.adcHeartBeatCounter\[8\]
*591 pmic\.syncPWM\.adcHeartBeatCounter\[9\]
*592 pmic\.syncPWM\.adcReadState\[0\]
*593 pmic\.syncPWM\.adcReadState\[1\]
*594 pmic\.syncPWM\.adcReadState\[2\]
*595 pmic\.syncPWM\.adcReadState\[3\]
*596 pmic\.syncPWM\.adcReadState\[4\]
*597 pmic\.syncPWM\.adcReadState\[5\]
*598 pmic\.syncPWM\.adcReadState\[6\]
*599 pmic\.syncPWM\.adcStart
*600 pmic\.syncPWM\.adcVoltageRegister\[0\]
*601 pmic\.syncPWM\.adcVoltageRegister\[1\]
*602 pmic\.syncPWM\.adcVoltageRegister\[2\]
*603 pmic\.syncPWM\.adcVoltageRegister\[3\]
*604 pmic\.syncPWM\.adcVoltageRegister\[4\]
*605 pmic\.syncPWM\.adcVoltageRegister\[5\]
*606 pmic\.syncPWM\.adcVoltageRegister\[6\]
*607 pmic\.syncPWM\.adcVoltageRegister\[7\]
*608 pmic\.syncPWM\.counterFlag
*609 pmic\.syncPWM\.counterMode\[0\]
*610 pmic\.syncPWM\.counterMode\[1\]
*611 pmic\.syncPWM\.counter\[0\]
*612 pmic\.syncPWM\.counter\[10\]
*613 pmic\.syncPWM\.counter\[11\]
*614 pmic\.syncPWM\.counter\[12\]
*615 pmic\.syncPWM\.counter\[13\]
*616 pmic\.syncPWM\.counter\[14\]
*617 pmic\.syncPWM\.counter\[15\]
*618 pmic\.syncPWM\.counter\[16\]
*619 pmic\.syncPWM\.counter\[17\]
*620 pmic\.syncPWM\.counter\[18\]
*621 pmic\.syncPWM\.counter\[19\]
*622 pmic\.syncPWM\.counter\[1\]
*623 pmic\.syncPWM\.counter\[20\]
*624 pmic\.syncPWM\.counter\[21\]
*625 pmic\.syncPWM\.counter\[22\]
*626 pmic\.syncPWM\.counter\[23\]
*627 pmic\.syncPWM\.counter\[24\]
*628 pmic\.syncPWM\.counter\[25\]
*629 pmic\.syncPWM\.counter\[26\]
*630 pmic\.syncPWM\.counter\[27\]
*631 pmic\.syncPWM\.counter\[28\]
*632 pmic\.syncPWM\.counter\[29\]
*633 pmic\.syncPWM\.counter\[2\]
*634 pmic\.syncPWM\.counter\[30\]
*635 pmic\.syncPWM\.counter\[31\]
*636 pmic\.syncPWM\.counter\[32\]
*637 pmic\.syncPWM\.counter\[33\]
*638 pmic\.syncPWM\.counter\[34\]
*639 pmic\.syncPWM\.counter\[35\]
*640 pmic\.syncPWM\.counter\[36\]
*641 pmic\.syncPWM\.counter\[3\]
*642 pmic\.syncPWM\.counter\[4\]
*643 pmic\.syncPWM\.counter\[5\]
*644 pmic\.syncPWM\.counter\[6\]
*645 pmic\.syncPWM\.counter\[7\]
*646 pmic\.syncPWM\.counter\[8\]
*647 pmic\.syncPWM\.counter\[9\]
*648 pmic\.syncPWM\.nextSyncState\[1\]
*649 pmic\.syncPWM\.nextSyncState\[2\]
*650 pmic\.syncPWM\.pwmHigh\[0\]
*651 pmic\.syncPWM\.pwmHigh\[1\]
*652 pmic\.syncPWM\.pwmHigh\[2\]
*653 pmic\.syncPWM\.pwmHigh\[3\]
*654 pmic\.syncPWM\.pwmHigh\[4\]
*655 pmic\.syncPWM\.pwmHigh\[5\]
*656 pmic\.syncPWM\.pwmHigh\[6\]
*657 pmic\.syncPWM\.pwmHigh\[7\]
*658 pmic\.syncPWM\.syncRegOutHs
*659 pmic\.syncPWM\.syncRegOutLs
*660 pmic\.syncPWM\.syncState\[0\]
*661 pmic\.syncPWM\.syncState\[1\]
*662 pmic\.syncPWM\.syncState\[2\]
*663 FILLER_0_0_109
*664 FILLER_0_0_113
*665 FILLER_0_0_125
*666 FILLER_0_0_137
*667 FILLER_0_0_141
*668 FILLER_0_0_15
*669 FILLER_0_0_153
*670 FILLER_0_0_165
*671 FILLER_0_0_169
*672 FILLER_0_0_181
*673 FILLER_0_0_193
*674 FILLER_0_0_197
*675 FILLER_0_0_209
*676 FILLER_0_0_221
*677 FILLER_0_0_225
*678 FILLER_0_0_237
*679 FILLER_0_0_249
*680 FILLER_0_0_253
*681 FILLER_0_0_265
*682 FILLER_0_0_27
*683 FILLER_0_0_277
*684 FILLER_0_0_281
*685 FILLER_0_0_29
*686 FILLER_0_0_293
*687 FILLER_0_0_3
*688 FILLER_0_0_305
*689 FILLER_0_0_309
*690 FILLER_0_0_321
*691 FILLER_0_0_333
*692 FILLER_0_0_41
*693 FILLER_0_0_53
*694 FILLER_0_0_57
*695 FILLER_0_0_69
*696 FILLER_0_0_81
*697 FILLER_0_0_85
*698 FILLER_0_0_97
*699 FILLER_0_10_134
*700 FILLER_0_10_139
*701 FILLER_0_10_141
*702 FILLER_0_10_149
*703 FILLER_0_10_15
*704 FILLER_0_10_156
*705 FILLER_0_10_168
*706 FILLER_0_10_176
*707 FILLER_0_10_184
*708 FILLER_0_10_197
*709 FILLER_0_10_230
*710 FILLER_0_10_242
*711 FILLER_0_10_250
*712 FILLER_0_10_253
*713 FILLER_0_10_265
*714 FILLER_0_10_27
*715 FILLER_0_10_277
*716 FILLER_0_10_29
*717 FILLER_0_10_3
*718 FILLER_0_10_302
*719 FILLER_0_10_315
*720 FILLER_0_10_327
*721 FILLER_0_10_41
*722 FILLER_0_10_53
*723 FILLER_0_10_65
*724 FILLER_0_10_77
*725 FILLER_0_10_83
*726 FILLER_0_10_85
*727 FILLER_0_10_93
*728 FILLER_0_11_113
*729 FILLER_0_11_125
*730 FILLER_0_11_15
*731 FILLER_0_11_155
*732 FILLER_0_11_167
*733 FILLER_0_11_169
*734 FILLER_0_11_190
*735 FILLER_0_11_222
*736 FILLER_0_11_228
*737 FILLER_0_11_27
*738 FILLER_0_11_281
*739 FILLER_0_11_290
*740 FILLER_0_11_3
*741 FILLER_0_11_302
*742 FILLER_0_11_314
*743 FILLER_0_11_326
*744 FILLER_0_11_334
*745 FILLER_0_11_39
*746 FILLER_0_11_51
*747 FILLER_0_11_55
*748 FILLER_0_11_57
*749 FILLER_0_11_69
*750 FILLER_0_11_81
*751 FILLER_0_11_89
*752 FILLER_0_12_15
*753 FILLER_0_12_167
*754 FILLER_0_12_173
*755 FILLER_0_12_177
*756 FILLER_0_12_189
*757 FILLER_0_12_195
*758 FILLER_0_12_197
*759 FILLER_0_12_233
*760 FILLER_0_12_241
*761 FILLER_0_12_256
*762 FILLER_0_12_268
*763 FILLER_0_12_27
*764 FILLER_0_12_280
*765 FILLER_0_12_29
*766 FILLER_0_12_292
*767 FILLER_0_12_3
*768 FILLER_0_12_304
*769 FILLER_0_12_309
*770 FILLER_0_12_321
*771 FILLER_0_12_333
*772 FILLER_0_12_41
*773 FILLER_0_12_49
*774 FILLER_0_12_70
*775 FILLER_0_12_82
*776 FILLER_0_12_85
*777 FILLER_0_13_104
*778 FILLER_0_13_113
*779 FILLER_0_13_125
*780 FILLER_0_13_15
*781 FILLER_0_13_152
*782 FILLER_0_13_164
*783 FILLER_0_13_192
*784 FILLER_0_13_204
*785 FILLER_0_13_209
*786 FILLER_0_13_221
*787 FILLER_0_13_225
*788 FILLER_0_13_237
*789 FILLER_0_13_27
*790 FILLER_0_13_281
*791 FILLER_0_13_3
*792 FILLER_0_13_314
*793 FILLER_0_13_326
*794 FILLER_0_13_334
*795 FILLER_0_13_39
*796 FILLER_0_13_51
*797 FILLER_0_13_77
*798 FILLER_0_13_89
*799 FILLER_0_13_97
*800 FILLER_0_14_114
*801 FILLER_0_14_126
*802 FILLER_0_14_134
*803 FILLER_0_14_138
*804 FILLER_0_14_141
*805 FILLER_0_14_15
*806 FILLER_0_14_153
*807 FILLER_0_14_165
*808 FILLER_0_14_202
*809 FILLER_0_14_230
*810 FILLER_0_14_242
*811 FILLER_0_14_250
*812 FILLER_0_14_258
*813 FILLER_0_14_267
*814 FILLER_0_14_27
*815 FILLER_0_14_279
*816 FILLER_0_14_283
*817 FILLER_0_14_29
*818 FILLER_0_14_3
*819 FILLER_0_14_320
*820 FILLER_0_14_332
*821 FILLER_0_14_41
*822 FILLER_0_14_77
*823 FILLER_0_14_83
*824 FILLER_0_14_85
*825 FILLER_0_14_93
*826 FILLER_0_15_113
*827 FILLER_0_15_125
*828 FILLER_0_15_15
*829 FILLER_0_15_151
*830 FILLER_0_15_163
*831 FILLER_0_15_167
*832 FILLER_0_15_203
*833 FILLER_0_15_238
*834 FILLER_0_15_268
*835 FILLER_0_15_27
*836 FILLER_0_15_281
*837 FILLER_0_15_3
*838 FILLER_0_15_312
*839 FILLER_0_15_324
*840 FILLER_0_15_332
*841 FILLER_0_15_39
*842 FILLER_0_15_47
*843 FILLER_0_15_77
*844 FILLER_0_15_89
*845 FILLER_0_16_116
*846 FILLER_0_16_144
*847 FILLER_0_16_15
*848 FILLER_0_16_158
*849 FILLER_0_16_166
*850 FILLER_0_16_194
*851 FILLER_0_16_197
*852 FILLER_0_16_236
*853 FILLER_0_16_240
*854 FILLER_0_16_249
*855 FILLER_0_16_27
*856 FILLER_0_16_273
*857 FILLER_0_16_285
*858 FILLER_0_16_3
*859 FILLER_0_16_302
*860 FILLER_0_16_319
*861 FILLER_0_16_331
*862 FILLER_0_16_49
*863 FILLER_0_16_60
*864 FILLER_0_16_83
*865 FILLER_0_16_85
*866 FILLER_0_16_93
*867 FILLER_0_17_119
*868 FILLER_0_17_131
*869 FILLER_0_17_15
*870 FILLER_0_17_165
*871 FILLER_0_17_169
*872 FILLER_0_17_175
*873 FILLER_0_17_179
*874 FILLER_0_17_189
*875 FILLER_0_17_201
*876 FILLER_0_17_213
*877 FILLER_0_17_235
*878 FILLER_0_17_241
*879 FILLER_0_17_27
*880 FILLER_0_17_281
*881 FILLER_0_17_3
*882 FILLER_0_17_325
*883 FILLER_0_17_332
*884 FILLER_0_17_54
*885 FILLER_0_17_57
*886 FILLER_0_17_90
*887 FILLER_0_18_110
*888 FILLER_0_18_122
*889 FILLER_0_18_130
*890 FILLER_0_18_15
*891 FILLER_0_18_169
*892 FILLER_0_18_181
*893 FILLER_0_18_189
*894 FILLER_0_18_194
*895 FILLER_0_18_202
*896 FILLER_0_18_219
*897 FILLER_0_18_231
*898 FILLER_0_18_243
*899 FILLER_0_18_273
*900 FILLER_0_18_285
*901 FILLER_0_18_3
*902 FILLER_0_18_312
*903 FILLER_0_18_333
*904 FILLER_0_18_49
*905 FILLER_0_18_61
*906 FILLER_0_18_67
*907 FILLER_0_18_71
*908 FILLER_0_18_83
*909 FILLER_0_18_85
*910 FILLER_0_18_93
*911 FILLER_0_19_108
*912 FILLER_0_19_119
*913 FILLER_0_19_131
*914 FILLER_0_19_15
*915 FILLER_0_19_164
*916 FILLER_0_19_169
*917 FILLER_0_19_181
*918 FILLER_0_19_208
*919 FILLER_0_19_220
*920 FILLER_0_19_228
*921 FILLER_0_19_240
*922 FILLER_0_19_252
*923 FILLER_0_19_256
*924 FILLER_0_19_265
*925 FILLER_0_19_27
*926 FILLER_0_19_277
*927 FILLER_0_19_281
*928 FILLER_0_19_293
*929 FILLER_0_19_3
*930 FILLER_0_19_303
*931 FILLER_0_19_325
*932 FILLER_0_19_331
*933 FILLER_0_19_48
*934 FILLER_0_19_57
*935 FILLER_0_19_81
*936 FILLER_0_19_93
*937 FILLER_0_1_105
*938 FILLER_0_1_111
*939 FILLER_0_1_113
*940 FILLER_0_1_125
*941 FILLER_0_1_137
*942 FILLER_0_1_149
*943 FILLER_0_1_15
*944 FILLER_0_1_161
*945 FILLER_0_1_167
*946 FILLER_0_1_169
*947 FILLER_0_1_181
*948 FILLER_0_1_193
*949 FILLER_0_1_205
*950 FILLER_0_1_217
*951 FILLER_0_1_223
*952 FILLER_0_1_225
*953 FILLER_0_1_237
*954 FILLER_0_1_249
*955 FILLER_0_1_261
*956 FILLER_0_1_27
*957 FILLER_0_1_273
*958 FILLER_0_1_279
*959 FILLER_0_1_281
*960 FILLER_0_1_293
*961 FILLER_0_1_3
*962 FILLER_0_1_305
*963 FILLER_0_1_317
*964 FILLER_0_1_329
*965 FILLER_0_1_39
*966 FILLER_0_1_51
*967 FILLER_0_1_55
*968 FILLER_0_1_57
*969 FILLER_0_1_69
*970 FILLER_0_1_81
*971 FILLER_0_1_93
*972 FILLER_0_20_122
*973 FILLER_0_20_134
*974 FILLER_0_20_141
*975 FILLER_0_20_145
*976 FILLER_0_20_15
*977 FILLER_0_20_202
*978 FILLER_0_20_214
*979 FILLER_0_20_221
*980 FILLER_0_20_227
*981 FILLER_0_20_251
*982 FILLER_0_20_253
*983 FILLER_0_20_265
*984 FILLER_0_20_27
*985 FILLER_0_20_272
*986 FILLER_0_20_284
*987 FILLER_0_20_29
*988 FILLER_0_20_296
*989 FILLER_0_20_3
*990 FILLER_0_20_317
*991 FILLER_0_20_329
*992 FILLER_0_20_35
*993 FILLER_0_20_47
*994 FILLER_0_20_59
*995 FILLER_0_20_81
*996 FILLER_0_20_85
*997 FILLER_0_20_96
*998 FILLER_0_21_116
*999 FILLER_0_21_125
*1000 FILLER_0_21_137
*1001 FILLER_0_21_15
*1002 FILLER_0_21_178
*1003 FILLER_0_21_186
*1004 FILLER_0_21_190
*1005 FILLER_0_21_202
*1006 FILLER_0_21_208
*1007 FILLER_0_21_214
*1008 FILLER_0_21_225
*1009 FILLER_0_21_256
*1010 FILLER_0_21_27
*1011 FILLER_0_21_281
*1012 FILLER_0_21_290
*1013 FILLER_0_21_3
*1014 FILLER_0_21_302
*1015 FILLER_0_21_314
*1016 FILLER_0_21_326
*1017 FILLER_0_21_334
*1018 FILLER_0_21_39
*1019 FILLER_0_21_51
*1020 FILLER_0_21_89
*1021 FILLER_0_22_120
*1022 FILLER_0_22_132
*1023 FILLER_0_22_15
*1024 FILLER_0_22_167
*1025 FILLER_0_22_173
*1026 FILLER_0_22_185
*1027 FILLER_0_22_193
*1028 FILLER_0_22_225
*1029 FILLER_0_22_237
*1030 FILLER_0_22_243
*1031 FILLER_0_22_251
*1032 FILLER_0_22_262
*1033 FILLER_0_22_27
*1034 FILLER_0_22_29
*1035 FILLER_0_22_3
*1036 FILLER_0_22_332
*1037 FILLER_0_22_41
*1038 FILLER_0_22_53
*1039 FILLER_0_22_59
*1040 FILLER_0_22_85
*1041 FILLER_0_22_97
*1042 FILLER_0_23_113
*1043 FILLER_0_23_125
*1044 FILLER_0_23_15
*1045 FILLER_0_23_152
*1046 FILLER_0_23_162
*1047 FILLER_0_23_169
*1048 FILLER_0_23_181
*1049 FILLER_0_23_193
*1050 FILLER_0_23_205
*1051 FILLER_0_23_225
*1052 FILLER_0_23_234
*1053 FILLER_0_23_246
*1054 FILLER_0_23_254
*1055 FILLER_0_23_268
*1056 FILLER_0_23_27
*1057 FILLER_0_23_279
*1058 FILLER_0_23_291
*1059 FILLER_0_23_3
*1060 FILLER_0_23_334
*1061 FILLER_0_23_39
*1062 FILLER_0_23_51
*1063 FILLER_0_23_55
*1064 FILLER_0_23_57
*1065 FILLER_0_23_63
*1066 FILLER_0_23_67
*1067 FILLER_0_23_73
*1068 FILLER_0_23_80
*1069 FILLER_0_24_120
*1070 FILLER_0_24_132
*1071 FILLER_0_24_136
*1072 FILLER_0_24_141
*1073 FILLER_0_24_15
*1074 FILLER_0_24_153
*1075 FILLER_0_24_165
*1076 FILLER_0_24_173
*1077 FILLER_0_24_197
*1078 FILLER_0_24_203
*1079 FILLER_0_24_212
*1080 FILLER_0_24_221
*1081 FILLER_0_24_230
*1082 FILLER_0_24_242
*1083 FILLER_0_24_250
*1084 FILLER_0_24_266
*1085 FILLER_0_24_27
*1086 FILLER_0_24_278
*1087 FILLER_0_24_282
*1088 FILLER_0_24_29
*1089 FILLER_0_24_294
*1090 FILLER_0_24_3
*1091 FILLER_0_24_306
*1092 FILLER_0_24_320
*1093 FILLER_0_24_332
*1094 FILLER_0_24_41
*1095 FILLER_0_24_65
*1096 FILLER_0_24_77
*1097 FILLER_0_24_83
*1098 FILLER_0_24_85
*1099 FILLER_0_24_93
*1100 FILLER_0_25_110
*1101 FILLER_0_25_116
*1102 FILLER_0_25_128
*1103 FILLER_0_25_152
*1104 FILLER_0_25_164
*1105 FILLER_0_25_169
*1106 FILLER_0_25_194
*1107 FILLER_0_25_211
*1108 FILLER_0_25_240
*1109 FILLER_0_25_252
*1110 FILLER_0_25_264
*1111 FILLER_0_25_276
*1112 FILLER_0_25_287
*1113 FILLER_0_25_293
*1114 FILLER_0_25_3
*1115 FILLER_0_25_305
*1116 FILLER_0_25_317
*1117 FILLER_0_25_329
*1118 FILLER_0_25_35
*1119 FILLER_0_25_77
*1120 FILLER_0_25_83
*1121 FILLER_0_26_113
*1122 FILLER_0_26_125
*1123 FILLER_0_26_129
*1124 FILLER_0_26_134
*1125 FILLER_0_26_15
*1126 FILLER_0_26_155
*1127 FILLER_0_26_195
*1128 FILLER_0_26_197
*1129 FILLER_0_26_209
*1130 FILLER_0_26_228
*1131 FILLER_0_26_234
*1132 FILLER_0_26_247
*1133 FILLER_0_26_251
*1134 FILLER_0_26_253
*1135 FILLER_0_26_26
*1136 FILLER_0_26_264
*1137 FILLER_0_26_268
*1138 FILLER_0_26_3
*1139 FILLER_0_26_300
*1140 FILLER_0_26_316
*1141 FILLER_0_26_32
*1142 FILLER_0_26_328
*1143 FILLER_0_26_334
*1144 FILLER_0_26_44
*1145 FILLER_0_26_80
*1146 FILLER_0_26_85
*1147 FILLER_0_27_111
*1148 FILLER_0_27_113
*1149 FILLER_0_27_125
*1150 FILLER_0_27_138
*1151 FILLER_0_27_148
*1152 FILLER_0_27_15
*1153 FILLER_0_27_155
*1154 FILLER_0_27_159
*1155 FILLER_0_27_167
*1156 FILLER_0_27_189
*1157 FILLER_0_27_201
*1158 FILLER_0_27_213
*1159 FILLER_0_27_225
*1160 FILLER_0_27_235
*1161 FILLER_0_27_243
*1162 FILLER_0_27_268
*1163 FILLER_0_27_27
*1164 FILLER_0_27_278
*1165 FILLER_0_27_290
*1166 FILLER_0_27_298
*1167 FILLER_0_27_3
*1168 FILLER_0_27_308
*1169 FILLER_0_27_312
*1170 FILLER_0_27_334
*1171 FILLER_0_27_39
*1172 FILLER_0_27_47
*1173 FILLER_0_27_52
*1174 FILLER_0_27_72
*1175 FILLER_0_27_84
*1176 FILLER_0_27_99
*1177 FILLER_0_28_111
*1178 FILLER_0_28_15
*1179 FILLER_0_28_157
*1180 FILLER_0_28_169
*1181 FILLER_0_28_179
*1182 FILLER_0_28_19
*1183 FILLER_0_28_191
*1184 FILLER_0_28_195
*1185 FILLER_0_28_197
*1186 FILLER_0_28_205
*1187 FILLER_0_28_217
*1188 FILLER_0_28_229
*1189 FILLER_0_28_241
*1190 FILLER_0_28_249
*1191 FILLER_0_28_26
*1192 FILLER_0_28_264
*1193 FILLER_0_28_276
*1194 FILLER_0_28_280
*1195 FILLER_0_28_284
*1196 FILLER_0_28_292
*1197 FILLER_0_28_3
*1198 FILLER_0_28_300
*1199 FILLER_0_28_329
*1200 FILLER_0_28_37
*1201 FILLER_0_28_49
*1202 FILLER_0_28_61
*1203 FILLER_0_28_70
*1204 FILLER_0_28_82
*1205 FILLER_0_28_99
*1206 FILLER_0_29_108
*1207 FILLER_0_29_113
*1208 FILLER_0_29_139
*1209 FILLER_0_29_154
*1210 FILLER_0_29_166
*1211 FILLER_0_29_169
*1212 FILLER_0_29_181
*1213 FILLER_0_29_185
*1214 FILLER_0_29_211
*1215 FILLER_0_29_223
*1216 FILLER_0_29_238
*1217 FILLER_0_29_247
*1218 FILLER_0_29_259
*1219 FILLER_0_29_271
*1220 FILLER_0_29_296
*1221 FILLER_0_29_3
*1222 FILLER_0_29_308
*1223 FILLER_0_29_322
*1224 FILLER_0_29_334
*1225 FILLER_0_29_40
*1226 FILLER_0_29_52
*1227 FILLER_0_29_57
*1228 FILLER_0_29_71
*1229 FILLER_0_2_109
*1230 FILLER_0_2_121
*1231 FILLER_0_2_133
*1232 FILLER_0_2_139
*1233 FILLER_0_2_141
*1234 FILLER_0_2_15
*1235 FILLER_0_2_153
*1236 FILLER_0_2_165
*1237 FILLER_0_2_177
*1238 FILLER_0_2_189
*1239 FILLER_0_2_195
*1240 FILLER_0_2_197
*1241 FILLER_0_2_209
*1242 FILLER_0_2_221
*1243 FILLER_0_2_233
*1244 FILLER_0_2_245
*1245 FILLER_0_2_251
*1246 FILLER_0_2_253
*1247 FILLER_0_2_265
*1248 FILLER_0_2_27
*1249 FILLER_0_2_277
*1250 FILLER_0_2_289
*1251 FILLER_0_2_29
*1252 FILLER_0_2_3
*1253 FILLER_0_2_301
*1254 FILLER_0_2_307
*1255 FILLER_0_2_309
*1256 FILLER_0_2_321
*1257 FILLER_0_2_333
*1258 FILLER_0_2_41
*1259 FILLER_0_2_53
*1260 FILLER_0_2_65
*1261 FILLER_0_2_77
*1262 FILLER_0_2_83
*1263 FILLER_0_2_85
*1264 FILLER_0_2_97
*1265 FILLER_0_30_115
*1266 FILLER_0_30_126
*1267 FILLER_0_30_138
*1268 FILLER_0_30_141
*1269 FILLER_0_30_15
*1270 FILLER_0_30_166
*1271 FILLER_0_30_172
*1272 FILLER_0_30_197
*1273 FILLER_0_30_21
*1274 FILLER_0_30_216
*1275 FILLER_0_30_224
*1276 FILLER_0_30_241
*1277 FILLER_0_30_249
*1278 FILLER_0_30_253
*1279 FILLER_0_30_26
*1280 FILLER_0_30_265
*1281 FILLER_0_30_29
*1282 FILLER_0_30_290
*1283 FILLER_0_30_298
*1284 FILLER_0_30_3
*1285 FILLER_0_30_306
*1286 FILLER_0_30_309
*1287 FILLER_0_30_327
*1288 FILLER_0_30_38
*1289 FILLER_0_30_50
*1290 FILLER_0_30_94
*1291 FILLER_0_31_102
*1292 FILLER_0_31_110
*1293 FILLER_0_31_139
*1294 FILLER_0_31_147
*1295 FILLER_0_31_15
*1296 FILLER_0_31_169
*1297 FILLER_0_31_209
*1298 FILLER_0_31_239
*1299 FILLER_0_31_255
*1300 FILLER_0_31_267
*1301 FILLER_0_31_275
*1302 FILLER_0_31_279
*1303 FILLER_0_31_281
*1304 FILLER_0_31_296
*1305 FILLER_0_31_3
*1306 FILLER_0_31_332
*1307 FILLER_0_31_47
*1308 FILLER_0_31_55
*1309 FILLER_0_31_90
*1310 FILLER_0_32_109
*1311 FILLER_0_32_117
*1312 FILLER_0_32_126
*1313 FILLER_0_32_135
*1314 FILLER_0_32_139
*1315 FILLER_0_32_161
*1316 FILLER_0_32_173
*1317 FILLER_0_32_185
*1318 FILLER_0_32_193
*1319 FILLER_0_32_197
*1320 FILLER_0_32_206
*1321 FILLER_0_32_237
*1322 FILLER_0_32_243
*1323 FILLER_0_32_247
*1324 FILLER_0_32_251
*1325 FILLER_0_32_253
*1326 FILLER_0_32_259
*1327 FILLER_0_32_270
*1328 FILLER_0_32_282
*1329 FILLER_0_32_294
*1330 FILLER_0_32_3
*1331 FILLER_0_32_306
*1332 FILLER_0_32_332
*1333 FILLER_0_32_42
*1334 FILLER_0_32_54
*1335 FILLER_0_32_7
*1336 FILLER_0_32_82
*1337 FILLER_0_32_85
*1338 FILLER_0_32_97
*1339 FILLER_0_33_111
*1340 FILLER_0_33_113
*1341 FILLER_0_33_125
*1342 FILLER_0_33_137
*1343 FILLER_0_33_15
*1344 FILLER_0_33_155
*1345 FILLER_0_33_161
*1346 FILLER_0_33_169
*1347 FILLER_0_33_176
*1348 FILLER_0_33_188
*1349 FILLER_0_33_200
*1350 FILLER_0_33_231
*1351 FILLER_0_33_243
*1352 FILLER_0_33_251
*1353 FILLER_0_33_278
*1354 FILLER_0_33_289
*1355 FILLER_0_33_3
*1356 FILLER_0_33_306
*1357 FILLER_0_33_318
*1358 FILLER_0_33_330
*1359 FILLER_0_33_334
*1360 FILLER_0_33_38
*1361 FILLER_0_33_50
*1362 FILLER_0_33_57
*1363 FILLER_0_33_69
*1364 FILLER_0_33_81
*1365 FILLER_0_33_89
*1366 FILLER_0_34_121
*1367 FILLER_0_34_125
*1368 FILLER_0_34_129
*1369 FILLER_0_34_137
*1370 FILLER_0_34_141
*1371 FILLER_0_34_15
*1372 FILLER_0_34_166
*1373 FILLER_0_34_181
*1374 FILLER_0_34_193
*1375 FILLER_0_34_197
*1376 FILLER_0_34_209
*1377 FILLER_0_34_221
*1378 FILLER_0_34_233
*1379 FILLER_0_34_245
*1380 FILLER_0_34_268
*1381 FILLER_0_34_27
*1382 FILLER_0_34_280
*1383 FILLER_0_34_29
*1384 FILLER_0_34_3
*1385 FILLER_0_34_301
*1386 FILLER_0_34_307
*1387 FILLER_0_34_315
*1388 FILLER_0_34_327
*1389 FILLER_0_34_41
*1390 FILLER_0_34_69
*1391 FILLER_0_34_81
*1392 FILLER_0_34_85
*1393 FILLER_0_35_111
*1394 FILLER_0_35_119
*1395 FILLER_0_35_141
*1396 FILLER_0_35_15
*1397 FILLER_0_35_209
*1398 FILLER_0_35_221
*1399 FILLER_0_35_225
*1400 FILLER_0_35_246
*1401 FILLER_0_35_261
*1402 FILLER_0_35_27
*1403 FILLER_0_35_273
*1404 FILLER_0_35_298
*1405 FILLER_0_35_3
*1406 FILLER_0_35_328
*1407 FILLER_0_35_334
*1408 FILLER_0_35_35
*1409 FILLER_0_35_77
*1410 FILLER_0_35_89
*1411 FILLER_0_36_112
*1412 FILLER_0_36_141
*1413 FILLER_0_36_149
*1414 FILLER_0_36_15
*1415 FILLER_0_36_184
*1416 FILLER_0_36_188
*1417 FILLER_0_36_220
*1418 FILLER_0_36_244
*1419 FILLER_0_36_256
*1420 FILLER_0_36_262
*1421 FILLER_0_36_27
*1422 FILLER_0_36_29
*1423 FILLER_0_36_3
*1424 FILLER_0_36_303
*1425 FILLER_0_36_41
*1426 FILLER_0_36_49
*1427 FILLER_0_36_53
*1428 FILLER_0_36_82
*1429 FILLER_0_37_108
*1430 FILLER_0_37_113
*1431 FILLER_0_37_136
*1432 FILLER_0_37_148
*1433 FILLER_0_37_15
*1434 FILLER_0_37_160
*1435 FILLER_0_37_187
*1436 FILLER_0_37_211
*1437 FILLER_0_37_223
*1438 FILLER_0_37_225
*1439 FILLER_0_37_27
*1440 FILLER_0_37_278
*1441 FILLER_0_37_299
*1442 FILLER_0_37_3
*1443 FILLER_0_37_333
*1444 FILLER_0_37_39
*1445 FILLER_0_37_51
*1446 FILLER_0_37_77
*1447 FILLER_0_37_89
*1448 FILLER_0_37_95
*1449 FILLER_0_38_10
*1450 FILLER_0_38_102
*1451 FILLER_0_38_106
*1452 FILLER_0_38_110
*1453 FILLER_0_38_113
*1454 FILLER_0_38_118
*1455 FILLER_0_38_122
*1456 FILLER_0_38_126
*1457 FILLER_0_38_130
*1458 FILLER_0_38_134
*1459 FILLER_0_38_14
*1460 FILLER_0_38_144
*1461 FILLER_0_38_150
*1462 FILLER_0_38_154
*1463 FILLER_0_38_158
*1464 FILLER_0_38_166
*1465 FILLER_0_38_169
*1466 FILLER_0_38_18
*1467 FILLER_0_38_181
*1468 FILLER_0_38_193
*1469 FILLER_0_38_209
*1470 FILLER_0_38_22
*1471 FILLER_0_38_221
*1472 FILLER_0_38_225
*1473 FILLER_0_38_236
*1474 FILLER_0_38_249
*1475 FILLER_0_38_256
*1476 FILLER_0_38_262
*1477 FILLER_0_38_266
*1478 FILLER_0_38_270
*1479 FILLER_0_38_274
*1480 FILLER_0_38_278
*1481 FILLER_0_38_287
*1482 FILLER_0_38_294
*1483 FILLER_0_38_298
*1484 FILLER_0_38_302
*1485 FILLER_0_38_32
*1486 FILLER_0_38_321
*1487 FILLER_0_38_331
*1488 FILLER_0_38_38
*1489 FILLER_0_38_42
*1490 FILLER_0_38_46
*1491 FILLER_0_38_50
*1492 FILLER_0_38_54
*1493 FILLER_0_38_57
*1494 FILLER_0_38_6
*1495 FILLER_0_38_62
*1496 FILLER_0_38_66
*1497 FILLER_0_38_70
*1498 FILLER_0_38_74
*1499 FILLER_0_38_78
*1500 FILLER_0_38_88
*1501 FILLER_0_38_94
*1502 FILLER_0_38_98
*1503 FILLER_0_3_105
*1504 FILLER_0_3_111
*1505 FILLER_0_3_113
*1506 FILLER_0_3_125
*1507 FILLER_0_3_137
*1508 FILLER_0_3_149
*1509 FILLER_0_3_15
*1510 FILLER_0_3_161
*1511 FILLER_0_3_167
*1512 FILLER_0_3_169
*1513 FILLER_0_3_181
*1514 FILLER_0_3_193
*1515 FILLER_0_3_205
*1516 FILLER_0_3_217
*1517 FILLER_0_3_223
*1518 FILLER_0_3_225
*1519 FILLER_0_3_237
*1520 FILLER_0_3_249
*1521 FILLER_0_3_261
*1522 FILLER_0_3_27
*1523 FILLER_0_3_273
*1524 FILLER_0_3_279
*1525 FILLER_0_3_281
*1526 FILLER_0_3_293