*SPEF "ieee 1481-1999"
*DESIGN "tt_um_mw73_pmic"
*DATE "05:54:11 Friday April 19, 2024"
*VENDOR "The OpenROAD Project"
*PROGRAM "OpenROAD"
*VERSION "0889970d1790a2617e69f253221b8bd7626e51dc"
*DESIGN_FLOW "NAME_SCOPE LOCAL" "PIN_CAP NONE"
*DIVIDER /
*DELIMITER :
*BUS_DELIMITER []
*T_UNIT 1 NS
*C_UNIT 1 PF
*R_UNIT 1 OHM
*L_UNIT 1 HENRY

*NAME_MAP
*3 clk
*4 ena
*5 rst_n
*6 ui_in[0]
*7 ui_in[1]
*8 ui_in[2]
*9 ui_in[3]
*10 ui_in[4]
*11 ui_in[5]
*12 ui_in[6]
*13 ui_in[7]
*14 uio_in[0]
*15 uio_in[1]
*16 uio_in[2]
*17 uio_in[3]
*18 uio_in[4]
*19 uio_in[5]
*20 uio_in[6]
*21 uio_in[7]
*22 net39
*23 net40
*24 net41
*25 net42
*26 net43
*27 net44
*28 net45
*29 net46
*30 net47
*31 net48
*32 net49
*33 net50
*34 net51
*35 net52
*36 net53
*37 net54
*38 uo_out[0]
*39 uo_out[1]
*40 uo_out[2]
*41 uo_out[3]
*42 net55
*43 net56
*44 net57
*45 net58
*46 _000_
*47 _001_
*48 _002_
*49 _003_
*50 _004_
*51 _005_
*52 _006_
*53 _007_
*54 _008_
*55 _009_
*56 _010_
*57 _011_
*58 _012_
*59 _023_
*60 _049_
*61 _050_
*62 _051_
*63 _052_
*64 _053_
*65 _054_
*66 _055_
*67 _056_
*68 _057_
*69 _058_
*70 _059_
*71 _060_
*72 _061_
*73 _062_
*74 _063_
*75 _064_
*76 _065_
*77 _066_
*78 _067_
*79 _068_
*80 _069_
*81 _070_
*82 _071_
*83 _072_
*84 _073_
*85 _074_
*86 _075_
*87 _076_
*88 _077_
*89 _078_
*90 _079_
*91 _080_
*92 _081_
*93 _082_
*94 _109_
*95 _110_
*96 _111_
*97 _112_
*98 _113_
*99 _114_
*100 _115_
*101 _116_
*102 _117_
*103 _118_
*104 _119_
*105 _120_
*106 _121_
*107 _122_
*108 _123_
*109 _124_
*110 _125_
*111 _126_
*112 _127_
*113 _128_
*114 _129_
*115 _130_
*116 _131_
*117 _132_
*118 _133_
*119 _134_
*120 _135_
*121 _136_
*122 _137_
*123 _138_
*124 _139_
*125 _140_
*126 _141_
*127 _142_
*128 _143_
*129 _144_
*130 _145_
*131 _146_
*132 _147_
*133 _148_
*134 _149_
*135 _150_
*136 _151_
*137 _152_
*138 _153_
*139 _154_
*140 _155_
*141 _156_
*142 _157_
*143 _158_
*144 _159_
*145 _160_
*146 _161_
*147 _162_
*148 _163_
*149 _164_
*150 _165_
*151 _166_
*152 _167_
*153 _168_
*154 _169_
*155 _170_
*156 _171_
*157 _172_
*158 _173_
*159 _174_
*160 _175_
*161 _176_
*162 _177_
*163 _178_
*164 _179_
*165 _180_
*166 _181_
*167 _182_
*168 _183_
*169 _184_
*170 _185_
*171 _186_
*172 _187_
*173 _188_
*174 _189_
*175 _190_
*176 _191_
*177 _192_
*178 _193_
*179 _194_
*180 _195_
*181 _196_
*182 _197_
*183 _198_
*184 _199_
*185 _200_
*186 _201_
*187 _202_
*188 _203_
*189 _204_
*190 _205_
*191 _206_
*192 _207_
*193 _208_
*194 _209_
*195 _210_
*196 _211_
*197 _212_
*198 _213_
*199 _214_
*200 _215_
*201 _216_
*202 _217_
*203 _218_
*204 _219_
*205 _220_
*206 _221_
*207 _222_
*208 _223_
*209 _224_
*210 _225_
*211 _226_
*212 _227_
*213 _228_
*214 _229_
*215 _230_
*216 _231_
*217 _232_
*218 _233_
*219 _234_
*220 _235_
*221 _236_
*222 _237_
*223 _238_
*224 _239_
*225 _240_
*226 _241_
*227 _242_
*228 _243_
*229 _244_
*230 _245_
*231 _246_
*232 _247_
*233 _248_
*234 _249_
*235 _250_
*236 _251_
*237 _252_
*238 _253_
*239 _254_
*240 _255_
*241 _256_
*242 _257_
*243 _258_
*244 _259_
*245 _260_
*246 _261_
*247 _262_
*248 _263_
*249 _264_
*250 _265_
*251 _266_
*252 _267_
*253 _268_
*254 _269_
*255 _270_
*256 _271_
*257 _272_
*258 _273_
*259 _274_
*260 _275_
*261 _276_
*262 _277_
*263 _278_
*264 _279_
*265 _280_
*266 _281_
*267 _282_
*268 _283_
*269 _284_
*270 _285_
*271 _286_
*272 _287_
*273 _288_
*274 _289_
*275 _290_
*276 _291_
*277 _292_
*278 _293_
*279 _294_
*280 _295_
*281 _296_
*282 _297_
*283 _298_
*284 _299_
*285 _300_
*286 _301_
*287 _302_
*288 _303_
*289 _304_
*290 _305_
*291 _306_
*292 _307_
*293 _308_
*294 _309_
*295 _310_
*296 _311_
*297 _312_
*298 _313_
*299 _314_
*300 _315_
*301 _316_
*302 _317_
*303 _318_
*304 _319_
*305 _320_
*306 _321_
*307 _322_
*308 _323_
*309 _324_
*310 _325_
*311 _326_
*312 _327_
*313 _328_
*314 _329_
*315 _330_
*316 _331_
*317 _332_
*318 _333_
*319 _334_
*320 _335_
*321 _336_
*322 _337_
*323 _338_
*324 _339_
*325 _340_
*326 _341_
*327 _342_
*328 _343_
*329 _344_
*330 _345_
*331 _346_
*332 _347_
*333 _348_
*334 clknet_0_clk
*335 clknet_2_0__leaf_clk
*336 clknet_2_1__leaf_clk
*337 clknet_2_2__leaf_clk
*338 clknet_2_3__leaf_clk
*339 net1
*340 net10
*341 net100
*342 net101
*343 net102
*344 net103
*345 net104
*346 net105
*347 net106
*348 net107
*349 net108
*350 net109
*351 net11
*352 net110
*353 net111
*354 net112
*355 net113
*356 net114
*357 net115
*358 net116
*359 net117
*360 net118
*361 net119
*362 net12
*363 net120
*364 net121
*365 net13
*366 net14
*367 net15
*368 net16
*369 net17
*370 net18
*371 net19
*372 net2
*373 net20
*374 net21
*375 net22
*376 net23
*377 net24
*378 net25
*379 net26
*380 net27
*381 net28
*382 net29
*383 net3
*384 net30
*385 net31
*386 net32
*387 net33
*388 net34
*389 net35
*390 net36
*391 net37
*392 net38
*393 net4
*394 net5
*395 net59
*396 net6
*397 net60
*398 net61
*399 net62
*400 net63
*401 net64
*402 net65
*403 net66
*404 net67
*405 net68
*406 net69
*407 net7
*408 net70
*409 net71
*410 net72
*411 net73
*412 net74
*413 net75
*414 net76
*415 net77
*416 net78
*417 net79
*418 net8
*419 net80
*420 net81
*421 net82
*422 net83
*423 net84
*424 net85
*425 net86
*426 net87
*427 net88
*428 net89
*429 net9
*430 net90
*431 net91
*432 net92
*433 net93
*434 net94
*435 net95
*436 net96
*437 net97
*438 net98
*439 net99
*440 pmic\.convStart
*441 pmic\.rd_cs
*442 pmic\.slowClk\.counter\[0\]
*443 pmic\.slowClk\.counter\[10\]
*444 pmic\.slowClk\.counter\[11\]
*445 pmic\.slowClk\.counter\[12\]
*446 pmic\.slowClk\.counter\[13\]
*447 pmic\.slowClk\.counter\[14\]
*448 pmic\.slowClk\.counter\[15\]
*449 pmic\.slowClk\.counter\[16\]
*450 pmic\.slowClk\.counter\[17\]
*451 pmic\.slowClk\.counter\[18\]
*452 pmic\.slowClk\.counter\[19\]
*453 pmic\.slowClk\.counter\[1\]
*454 pmic\.slowClk\.counter\[20\]
*455 pmic\.slowClk\.counter\[21\]
*456 pmic\.slowClk\.counter\[22\]
*457 pmic\.slowClk\.counter\[23\]
*458 pmic\.slowClk\.counter\[24\]
*459 pmic\.slowClk\.counter\[25\]
*460 pmic\.slowClk\.counter\[26\]
*461 pmic\.slowClk\.counter\[27\]
*462 pmic\.slowClk\.counter\[28\]
*463 pmic\.slowClk\.counter\[29\]
*464 pmic\.slowClk\.counter\[2\]
*465 pmic\.slowClk\.counter\[30\]
*466 pmic\.slowClk\.counter\[31\]
*467 pmic\.slowClk\.counter\[32\]
*468 pmic\.slowClk\.counter\[33\]
*469 pmic\.slowClk\.counter\[34\]
*470 pmic\.slowClk\.counter\[35\]
*471 pmic\.slowClk\.counter\[36\]
*472 pmic\.slowClk\.counter\[3\]
*473 pmic\.slowClk\.counter\[4\]
*474 pmic\.slowClk\.counter\[5\]
*475 pmic\.slowClk\.counter\[6\]
*476 pmic\.slowClk\.counter\[7\]
*477 pmic\.slowClk\.counter\[8\]
*478 pmic\.slowClk\.counter\[9\]
*479 pmic\.slowClk\.slow_clk
*480 pmic\.syncPWM\.adcCounter\[0\]
*481 pmic\.syncPWM\.adcCounter\[1\]
*482 pmic\.syncPWM\.adcCounter\[2\]
*483 pmic\.syncPWM\.adcCounter\[3\]
*484 pmic\.syncPWM\.adcCounter\[4\]
*485 pmic\.syncPWM\.adcCounter\[5\]
*486 pmic\.syncPWM\.adcHeartBeatCounter\[0\]
*487 pmic\.syncPWM\.adcHeartBeatCounter\[10\]
*488 pmic\.syncPWM\.adcHeartBeatCounter\[11\]
*489 pmic\.syncPWM\.adcHeartBeatCounter\[12\]
*490 pmic\.syncPWM\.adcHeartBeatCounter\[13\]
*491 pmic\.syncPWM\.adcHeartBeatCounter\[14\]
*492 pmic\.syncPWM\.adcHeartBeatCounter\[15\]
*493 pmic\.syncPWM\.adcHeartBeatCounter\[16\]
*494 pmic\.syncPWM\.adcHeartBeatCounter\[17\]
*495 pmic\.syncPWM\.adcHeartBeatCounter\[18\]
*496 pmic\.syncPWM\.adcHeartBeatCounter\[19\]
*497 pmic\.syncPWM\.adcHeartBeatCounter\[1\]
*498 pmic\.syncPWM\.adcHeartBeatCounter\[20\]
*499 pmic\.syncPWM\.adcHeartBeatCounter\[21\]
*500 pmic\.syncPWM\.adcHeartBeatCounter\[22\]
*501 pmic\.syncPWM\.adcHeartBeatCounter\[23\]
*502 pmic\.syncPWM\.adcHeartBeatCounter\[24\]
*503 pmic\.syncPWM\.adcHeartBeatCounter\[25\]
*504 pmic\.syncPWM\.adcHeartBeatCounter\[26\]
*505 pmic\.syncPWM\.adcHeartBeatCounter\[27\]
*506 pmic\.syncPWM\.adcHeartBeatCounter\[28\]
*507 pmic\.syncPWM\.adcHeartBeatCounter\[29\]
*508 pmic\.syncPWM\.adcHeartBeatCounter\[2\]
*509 pmic\.syncPWM\.adcHeartBeatCounter\[30\]
*510 pmic\.syncPWM\.adcHeartBeatCounter\[31\]
*511 pmic\.syncPWM\.adcHeartBeatCounter\[32\]
*512 pmic\.syncPWM\.adcHeartBeatCounter\[33\]
*513 pmic\.syncPWM\.adcHeartBeatCounter\[34\]
*514 pmic\.syncPWM\.adcHeartBeatCounter\[35\]
*515 pmic\.syncPWM\.adcHeartBeatCounter\[36\]
*516 pmic\.syncPWM\.adcHeartBeatCounter\[3\]
*517 pmic\.syncPWM\.adcHeartBeatCounter\[4\]
*518 pmic\.syncPWM\.adcHeartBeatCounter\[5\]
*519 pmic\.syncPWM\.adcHeartBeatCounter\[6\]
*520 pmic\.syncPWM\.adcHeartBeatCounter\[7\]
*521 pmic\.syncPWM\.adcHeartBeatCounter\[8\]
*522 pmic\.syncPWM\.adcHeartBeatCounter\[9\]
*523 pmic\.syncPWM\.adcReadState\[0\]
*524 pmic\.syncPWM\.adcReadState\[1\]
*525 pmic\.syncPWM\.adcReadState\[2\]
*526 pmic\.syncPWM\.adcReadState\[3\]
*527 pmic\.syncPWM\.adcReadState\[4\]
*528 pmic\.syncPWM\.adcReadState\[5\]
*529 pmic\.syncPWM\.adcReadState\[6\]
*530 pmic\.syncPWM\.adcStart
*531 pmic\.syncPWM\.adcVoltageRegister\[0\]
*532 pmic\.syncPWM\.adcVoltageRegister\[1\]
*533 pmic\.syncPWM\.adcVoltageRegister\[2\]
*534 pmic\.syncPWM\.adcVoltageRegister\[3\]
*535 pmic\.syncPWM\.adcVoltageRegister\[4\]
*536 pmic\.syncPWM\.adcVoltageRegister\[5\]
*537 pmic\.syncPWM\.adcVoltageRegister\[6\]
*538 pmic\.syncPWM\.adcVoltageRegister\[7\]
*539 pmic\.syncPWM\.counterFlag
*540 pmic\.syncPWM\.counterMode\[0\]
*541 pmic\.syncPWM\.counterMode\[1\]
*542 pmic\.syncPWM\.counter\[0\]
*543 pmic\.syncPWM\.counter\[1\]
*544 pmic\.syncPWM\.counter\[2\]
*545 pmic\.syncPWM\.counter\[3\]
*546 pmic\.syncPWM\.counter\[4\]
*547 pmic\.syncPWM\.counter\[5\]
*548 pmic\.syncPWM\.counter\[6\]
*549 pmic\.syncPWM\.counter\[7\]
*550 pmic\.syncPWM\.counter\[8\]
*551 pmic\.syncPWM\.nextSyncState\[1\]
*552 pmic\.syncPWM\.nextSyncState\[2\]
*553 pmic\.syncPWM\.pwmHigh\[0\]
*554 pmic\.syncPWM\.pwmHigh\[1\]
*555 pmic\.syncPWM\.pwmHigh\[2\]
*556 pmic\.syncPWM\.pwmHigh\[3\]
*557 pmic\.syncPWM\.pwmHigh\[4\]
*558 pmic\.syncPWM\.pwmHigh\[5\]
*559 pmic\.syncPWM\.pwmHigh\[6\]
*560 pmic\.syncPWM\.pwmHigh\[7\]
*561 pmic\.syncPWM\.syncRegOutHs
*562 pmic\.syncPWM\.syncRegOutLs
*563 pmic\.syncPWM\.syncState\[0\]
*564 pmic\.syncPWM\.syncState\[1\]
*565 pmic\.syncPWM\.syncState\[2\]
*566 FILLER_0_0_109
*567 FILLER_0_0_113
*568 FILLER_0_0_125
*569 FILLER_0_0_137
*570 FILLER_0_0_141
*571 FILLER_0_0_15
*572 FILLER_0_0_153
*573 FILLER_0_0_165
*574 FILLER_0_0_169
*575 FILLER_0_0_181
*576 FILLER_0_0_193
*577 FILLER_0_0_197
*578 FILLER_0_0_209
*579 FILLER_0_0_221
*580 FILLER_0_0_225
*581 FILLER_0_0_237
*582 FILLER_0_0_249
*583 FILLER_0_0_253
*584 FILLER_0_0_265
*585 FILLER_0_0_27
*586 FILLER_0_0_277
*587 FILLER_0_0_281
*588 FILLER_0_0_29
*589 FILLER_0_0_293
*590 FILLER_0_0_3
*591 FILLER_0_0_305
*592 FILLER_0_0_309
*593 FILLER_0_0_321
*594 FILLER_0_0_333
*595 FILLER_0_0_41
*596 FILLER_0_0_53
*597 FILLER_0_0_57
*598 FILLER_0_0_69
*599 FILLER_0_0_81
*600 FILLER_0_0_85
*601 FILLER_0_0_97
*602 FILLER_0_10_109
*603 FILLER_0_10_121
*604 FILLER_0_10_133
*605 FILLER_0_10_139
*606 FILLER_0_10_141
*607 FILLER_0_10_15
*608 FILLER_0_10_153
*609 FILLER_0_10_165
*610 FILLER_0_10_189
*611 FILLER_0_10_195
*612 FILLER_0_10_197
*613 FILLER_0_10_201
*614 FILLER_0_10_222
*615 FILLER_0_10_234
*616 FILLER_0_10_246
*617 FILLER_0_10_253
*618 FILLER_0_10_265
*619 FILLER_0_10_27
*620 FILLER_0_10_29
*621 FILLER_0_10_291
*622 FILLER_0_10_3
*623 FILLER_0_10_303
*624 FILLER_0_10_307
*625 FILLER_0_10_309
*626 FILLER_0_10_321
*627 FILLER_0_10_333
*628 FILLER_0_10_41
*629 FILLER_0_10_53
*630 FILLER_0_10_65
*631 FILLER_0_10_77
*632 FILLER_0_10_83
*633 FILLER_0_10_85
*634 FILLER_0_10_97
*635 FILLER_0_11_105
*636 FILLER_0_11_111
*637 FILLER_0_11_113
*638 FILLER_0_11_125
*639 FILLER_0_11_137
*640 FILLER_0_11_145
*641 FILLER_0_11_15
*642 FILLER_0_11_169
*643 FILLER_0_11_181
*644 FILLER_0_11_205
*645 FILLER_0_11_217
*646 FILLER_0_11_223
*647 FILLER_0_11_225
*648 FILLER_0_11_237
*649 FILLER_0_11_27
*650 FILLER_0_11_3
*651 FILLER_0_11_301
*652 FILLER_0_11_313
*653 FILLER_0_11_325
*654 FILLER_0_11_333
*655 FILLER_0_11_39
*656 FILLER_0_11_51
*657 FILLER_0_11_55
*658 FILLER_0_11_57
*659 FILLER_0_11_69
*660 FILLER_0_11_81
*661 FILLER_0_11_93
*662 FILLER_0_12_109
*663 FILLER_0_12_121
*664 FILLER_0_12_133
*665 FILLER_0_12_139
*666 FILLER_0_12_141
*667 FILLER_0_12_15
*668 FILLER_0_12_153
*669 FILLER_0_12_191
*670 FILLER_0_12_195
*671 FILLER_0_12_197
*672 FILLER_0_12_228
*673 FILLER_0_12_240
*674 FILLER_0_12_250
*675 FILLER_0_12_262
*676 FILLER_0_12_27
*677 FILLER_0_12_29
*678 FILLER_0_12_296
*679 FILLER_0_12_3
*680 FILLER_0_12_329
*681 FILLER_0_12_41
*682 FILLER_0_12_53
*683 FILLER_0_12_65
*684 FILLER_0_12_77
*685 FILLER_0_12_83
*686 FILLER_0_12_85
*687 FILLER_0_12_97
*688 FILLER_0_13_105
*689 FILLER_0_13_111
*690 FILLER_0_13_113
*691 FILLER_0_13_125
*692 FILLER_0_13_137
*693 FILLER_0_13_149
*694 FILLER_0_13_15
*695 FILLER_0_13_161
*696 FILLER_0_13_189
*697 FILLER_0_13_197
*698 FILLER_0_13_223
*699 FILLER_0_13_231
*700 FILLER_0_13_235
*701 FILLER_0_13_239
*702 FILLER_0_13_260
*703 FILLER_0_13_27
*704 FILLER_0_13_272
*705 FILLER_0_13_281
*706 FILLER_0_13_293
*707 FILLER_0_13_3
*708 FILLER_0_13_301
*709 FILLER_0_13_329
*710 FILLER_0_13_39
*711 FILLER_0_13_51
*712 FILLER_0_13_55
*713 FILLER_0_13_57
*714 FILLER_0_13_69
*715 FILLER_0_13_81
*716 FILLER_0_13_93
*717 FILLER_0_14_109
*718 FILLER_0_14_121
*719 FILLER_0_14_133
*720 FILLER_0_14_139
*721 FILLER_0_14_141
*722 FILLER_0_14_15
*723 FILLER_0_14_153
*724 FILLER_0_14_165
*725 FILLER_0_14_195
*726 FILLER_0_14_197
*727 FILLER_0_14_205
*728 FILLER_0_14_212
*729 FILLER_0_14_224
*730 FILLER_0_14_228
*731 FILLER_0_14_249
*732 FILLER_0_14_253
*733 FILLER_0_14_265
*734 FILLER_0_14_27
*735 FILLER_0_14_277
*736 FILLER_0_14_281
*737 FILLER_0_14_288
*738 FILLER_0_14_29
*739 FILLER_0_14_292
*740 FILLER_0_14_3
*741 FILLER_0_14_41
*742 FILLER_0_14_53
*743 FILLER_0_14_65
*744 FILLER_0_14_77
*745 FILLER_0_14_83
*746 FILLER_0_14_85
*747 FILLER_0_14_97
*748 FILLER_0_15_101
*749 FILLER_0_15_111
*750 FILLER_0_15_118
*751 FILLER_0_15_126
*752 FILLER_0_15_147
*753 FILLER_0_15_15
*754 FILLER_0_15_169
*755 FILLER_0_15_181
*756 FILLER_0_15_223
*757 FILLER_0_15_225
*758 FILLER_0_15_230
*759 FILLER_0_15_251
*760 FILLER_0_15_255
*761 FILLER_0_15_259
*762 FILLER_0_15_27
*763 FILLER_0_15_271
*764 FILLER_0_15_279
*765 FILLER_0_15_281
*766 FILLER_0_15_3
*767 FILLER_0_15_325
*768 FILLER_0_15_333
*769 FILLER_0_15_39
*770 FILLER_0_15_51
*771 FILLER_0_15_55
*772 FILLER_0_15_57
*773 FILLER_0_15_69
*774 FILLER_0_16_116
*775 FILLER_0_16_146
*776 FILLER_0_16_15
*777 FILLER_0_16_158
*778 FILLER_0_16_192
*779 FILLER_0_16_197
*780 FILLER_0_16_218
*781 FILLER_0_16_250
*782 FILLER_0_16_27
*783 FILLER_0_16_29
*784 FILLER_0_16_3
*785 FILLER_0_16_302
*786 FILLER_0_16_329
*787 FILLER_0_16_41
*788 FILLER_0_16_53
*789 FILLER_0_16_65
*790 FILLER_0_16_77
*791 FILLER_0_16_83
*792 FILLER_0_16_85
*793 FILLER_0_17_113
*794 FILLER_0_17_121
*795 FILLER_0_17_128
*796 FILLER_0_17_143
*797 FILLER_0_17_15
*798 FILLER_0_17_151
*799 FILLER_0_17_157
*800 FILLER_0_17_172
*801 FILLER_0_17_184
*802 FILLER_0_17_192
*803 FILLER_0_17_255
*804 FILLER_0_17_27
*805 FILLER_0_17_290
*806 FILLER_0_17_3
*807 FILLER_0_17_302
*808 FILLER_0_17_329
*809 FILLER_0_17_35
*810 FILLER_0_17_77
*811 FILLER_0_18_109
*812 FILLER_0_18_121
*813 FILLER_0_18_133
*814 FILLER_0_18_139
*815 FILLER_0_18_141
*816 FILLER_0_18_145
*817 FILLER_0_18_15
*818 FILLER_0_18_164
*819 FILLER_0_18_176
*820 FILLER_0_18_188
*821 FILLER_0_18_220
*822 FILLER_0_18_232
*823 FILLER_0_18_244
*824 FILLER_0_18_253
*825 FILLER_0_18_261
*826 FILLER_0_18_27
*827 FILLER_0_18_283
*828 FILLER_0_18_29
*829 FILLER_0_18_295
*830 FILLER_0_18_299
*831 FILLER_0_18_3
*832 FILLER_0_18_306
*833 FILLER_0_18_329
*834 FILLER_0_18_35
*835 FILLER_0_18_82
*836 FILLER_0_18_85
*837 FILLER_0_18_97
*838 FILLER_0_19_101
*839 FILLER_0_19_106
*840 FILLER_0_19_123
*841 FILLER_0_19_135
*842 FILLER_0_19_143
*843 FILLER_0_19_15
*844 FILLER_0_19_174
*845 FILLER_0_19_186
*846 FILLER_0_19_198
*847 FILLER_0_19_206
*848 FILLER_0_19_215
*849 FILLER_0_19_223
*850 FILLER_0_19_225
*851 FILLER_0_19_237
*852 FILLER_0_19_249
*853 FILLER_0_19_261
*854 FILLER_0_19_266
*855 FILLER_0_19_27
*856 FILLER_0_19_278
*857 FILLER_0_19_281
*858 FILLER_0_19_293
*859 FILLER_0_19_297
*860 FILLER_0_19_3
*861 FILLER_0_19_324
*862 FILLER_0_19_332
*863 FILLER_0_19_39
*864 FILLER_0_19_48
*865 FILLER_0_19_57
*866 FILLER_0_19_69
*867 FILLER_0_19_81
*868 FILLER_0_19_93
*869 FILLER_0_1_105
*870 FILLER_0_1_111
*871 FILLER_0_1_113
*872 FILLER_0_1_125
*873 FILLER_0_1_137
*874 FILLER_0_1_149
*875 FILLER_0_1_15
*876 FILLER_0_1_161
*877 FILLER_0_1_167
*878 FILLER_0_1_169
*879 FILLER_0_1_181
*880 FILLER_0_1_193
*881 FILLER_0_1_205
*882 FILLER_0_1_217
*883 FILLER_0_1_223
*884 FILLER_0_1_225
*885 FILLER_0_1_237
*886 FILLER_0_1_249
*887 FILLER_0_1_261
*888 FILLER_0_1_27
*889 FILLER_0_1_273
*890 FILLER_0_1_279
*891 FILLER_0_1_281
*892 FILLER_0_1_293
*893 FILLER_0_1_3
*894 FILLER_0_1_305
*895 FILLER_0_1_317
*896 FILLER_0_1_329
*897 FILLER_0_1_39
*898 FILLER_0_1_51
*899 FILLER_0_1_55
*900 FILLER_0_1_57
*901 FILLER_0_1_69
*902 FILLER_0_1_81
*903 FILLER_0_1_93
*904 FILLER_0_20_121
*905 FILLER_0_20_133
*906 FILLER_0_20_139
*907 FILLER_0_20_141
*908 FILLER_0_20_15
*909 FILLER_0_20_177
*910 FILLER_0_20_189
*911 FILLER_0_20_197
*912 FILLER_0_20_224
*913 FILLER_0_20_251
*914 FILLER_0_20_261
*915 FILLER_0_20_27
*916 FILLER_0_20_285
*917 FILLER_0_20_29
*918 FILLER_0_20_297
*919 FILLER_0_20_3
*920 FILLER_0_20_305
*921 FILLER_0_20_314
*922 FILLER_0_20_326
*923 FILLER_0_20_334
*924 FILLER_0_20_53
*925 FILLER_0_20_65
*926 FILLER_0_20_77
*927 FILLER_0_20_82
*928 FILLER_0_20_85
*929 FILLER_0_20_97
*930 FILLER_0_21_107
*931 FILLER_0_21_133
*932 FILLER_0_21_15
*933 FILLER_0_21_166
*934 FILLER_0_21_172
*935 FILLER_0_21_180
*936 FILLER_0_21_204
*937 FILLER_0_21_216
*938 FILLER_0_21_225
*939 FILLER_0_21_236
*940 FILLER_0_21_243
*941 FILLER_0_21_27
*942 FILLER_0_21_3
*943 FILLER_0_21_31
*944 FILLER_0_21_330
*945 FILLER_0_21_334
*946 FILLER_0_21_52
*947 FILLER_0_21_57
*948 FILLER_0_21_65
*949 FILLER_0_22_106
*950 FILLER_0_22_122
*951 FILLER_0_22_134
*952 FILLER_0_22_141
*953 FILLER_0_22_15
*954 FILLER_0_22_164
*955 FILLER_0_22_175
*956 FILLER_0_22_187
*957 FILLER_0_22_195
*958 FILLER_0_22_197
*959 FILLER_0_22_202
*960 FILLER_0_22_214
*961 FILLER_0_22_226
*962 FILLER_0_22_23
*963 FILLER_0_22_236
*964 FILLER_0_22_240
*965 FILLER_0_22_245
*966 FILLER_0_22_251
*967 FILLER_0_22_257
*968 FILLER_0_22_269
*969 FILLER_0_22_275
*970 FILLER_0_22_285
*971 FILLER_0_22_29
*972 FILLER_0_22_293
*973 FILLER_0_22_3
*974 FILLER_0_22_332
*975 FILLER_0_22_60
*976 FILLER_0_22_94
*977 FILLER_0_23_110
*978 FILLER_0_23_133
*979 FILLER_0_23_145
*980 FILLER_0_23_15
*981 FILLER_0_23_150
*982 FILLER_0_23_162
*983 FILLER_0_23_169
*984 FILLER_0_23_181
*985 FILLER_0_23_194
*986 FILLER_0_23_200
*987 FILLER_0_23_215
*988 FILLER_0_23_238
*989 FILLER_0_23_250
*990 FILLER_0_23_268
*991 FILLER_0_23_27
*992 FILLER_0_23_281
*993 FILLER_0_23_293
*994 FILLER_0_23_3
*995 FILLER_0_23_302
*996 FILLER_0_23_309
*997 FILLER_0_23_313
*998 FILLER_0_23_321
*999 FILLER_0_23_332
*1000 FILLER_0_23_53
*1001 FILLER_0_23_57
*1002 FILLER_0_23_86
*1003 FILLER_0_23_98
*1004 FILLER_0_24_109
*1005 FILLER_0_24_133
*1006 FILLER_0_24_139
*1007 FILLER_0_24_141
*1008 FILLER_0_24_15
*1009 FILLER_0_24_153
*1010 FILLER_0_24_165
*1011 FILLER_0_24_173
*1012 FILLER_0_24_206
*1013 FILLER_0_24_237
*1014 FILLER_0_24_249
*1015 FILLER_0_24_253
*1016 FILLER_0_24_260
*1017 FILLER_0_24_27
*1018 FILLER_0_24_272
*1019 FILLER_0_24_284
*1020 FILLER_0_24_29
*1021 FILLER_0_24_296
*1022 FILLER_0_24_3
*1023 FILLER_0_24_300
*1024 FILLER_0_24_306
*1025 FILLER_0_24_309
*1026 FILLER_0_24_321
*1027 FILLER_0_24_333
*1028 FILLER_0_24_40
*1029 FILLER_0_24_50
*1030 FILLER_0_24_62
*1031 FILLER_0_24_68
*1032 FILLER_0_24_72
*1033 FILLER_0_24_85
*1034 FILLER_0_24_97
*1035 FILLER_0_25_105
*1036 FILLER_0_25_111
*1037 FILLER_0_25_113
*1038 FILLER_0_25_139
*1039 FILLER_0_25_147
*1040 FILLER_0_25_15
*1041 FILLER_0_25_169
*1042 FILLER_0_25_197
*1043 FILLER_0_25_209
*1044 FILLER_0_25_221
*1045 FILLER_0_25_228
*1046 FILLER_0_25_239
*1047 FILLER_0_25_246
*1048 FILLER_0_25_254
*1049 FILLER_0_25_261
*1050 FILLER_0_25_27
*1051 FILLER_0_25_270
*1052 FILLER_0_25_279
*1053 FILLER_0_25_284
*1054 FILLER_0_25_3
*1055 FILLER_0_25_325
*1056 FILLER_0_25_333
*1057 FILLER_0_25_35
*1058 FILLER_0_25_57
*1059 FILLER_0_25_69
*1060 FILLER_0_25_93
*1061 FILLER_0_26_108
*1062 FILLER_0_26_139
*1063 FILLER_0_26_141
*1064 FILLER_0_26_145
*1065 FILLER_0_26_15
*1066 FILLER_0_26_187
*1067 FILLER_0_26_195
*1068 FILLER_0_26_197
*1069 FILLER_0_26_209
*1070 FILLER_0_26_225
*1071 FILLER_0_26_249
*1072 FILLER_0_26_260
*1073 FILLER_0_26_27
*1074 FILLER_0_26_277
*1075 FILLER_0_26_29
*1076 FILLER_0_26_3
*1077 FILLER_0_26_304
*1078 FILLER_0_26_325
*1079 FILLER_0_26_333
*1080 FILLER_0_26_35
*1081 FILLER_0_26_63
*1082 FILLER_0_26_96
*1083 FILLER_0_27_104
*1084 FILLER_0_27_142
*1085 FILLER_0_27_146
*1086 FILLER_0_27_15
*1087 FILLER_0_27_166
*1088 FILLER_0_27_169
*1089 FILLER_0_27_181
*1090 FILLER_0_27_193
*1091 FILLER_0_27_205
*1092 FILLER_0_27_247
*1093 FILLER_0_27_259
*1094 FILLER_0_27_27
*1095 FILLER_0_27_271
*1096 FILLER_0_27_279
*1097 FILLER_0_27_281
*1098 FILLER_0_27_293
*1099 FILLER_0_27_3
*1100 FILLER_0_27_305
*1101 FILLER_0_27_313
*1102 FILLER_0_27_327
*1103 FILLER_0_27_57
*1104 FILLER_0_27_68
*1105 FILLER_0_27_92
*1106 FILLER_0_28_109
*1107 FILLER_0_28_120
*1108 FILLER_0_28_137
*1109 FILLER_0_28_144
*1110 FILLER_0_28_15
*1111 FILLER_0_28_156
*1112 FILLER_0_28_168
*1113 FILLER_0_28_180
*1114 FILLER_0_28_207
*1115 FILLER_0_28_215
*1116 FILLER_0_28_223
*1117 FILLER_0_28_235
*1118 FILLER_0_28_247
*1119 FILLER_0_28_251
*1120 FILLER_0_28_253
*1121 FILLER_0_28_268
*1122 FILLER_0_28_27
*1123 FILLER_0_28_277
*1124 FILLER_0_28_289
*1125 FILLER_0_28_29
*1126 FILLER_0_28_3
*1127 FILLER_0_28_301
*1128 FILLER_0_28_330
*1129 FILLER_0_28_334
*1130 FILLER_0_28_37
*1131 FILLER_0_28_59
*1132 FILLER_0_28_71
*1133 FILLER_0_28_75
*1134 FILLER_0_28_82
*1135 FILLER_0_28_85
*1136 FILLER_0_28_97
*1137 FILLER_0_29_103
*1138 FILLER_0_29_111
*1139 FILLER_0_29_133
*1140 FILLER_0_29_139
*1141 FILLER_0_29_15
*1142 FILLER_0_29_151
*1143 FILLER_0_29_163
*1144 FILLER_0_29_167
*1145 FILLER_0_29_169
*1146 FILLER_0_29_207
*1147 FILLER_0_29_215
*1148 FILLER_0_29_223
*1149 FILLER_0_29_238
*1150 FILLER_0_29_250
*1151 FILLER_0_29_259
*1152 FILLER_0_29_269
*1153 FILLER_0_29_27
*1154 FILLER_0_29_277
*1155 FILLER_0_29_281
*1156 FILLER_0_29_285
*1157 FILLER_0_29_295
*1158 FILLER_0_29_3
*1159 FILLER_0_29_307
*1160 FILLER_0_29_323
*1161 FILLER_0_29_39
*1162 FILLER_0_29_45
*1163 FILLER_0_29_53
*1164 FILLER_0_29_57
*1165 FILLER_0_29_69
*1166 FILLER_0_2_109
*1167 FILLER_0_2_121
*1168 FILLER_0_2_133
*1169 FILLER_0_2_139
*1170 FILLER_0_2_141
*1171 FILLER_0_2_15
*1172 FILLER_0_2_153
*1173 FILLER_0_2_165
*1174 FILLER_0_2_177
*1175 FILLER_0_2_189
*1176 FILLER_0_2_195
*1177 FILLER_0_2_197
*1178 FILLER_0_2_209
*1179 FILLER_0_2_221
*1180 FILLER_0_2_233
*1181 FILLER_0_2_245
*1182 FILLER_0_2_251
*1183 FILLER_0_2_253
*1184 FILLER_0_2_265
*1185 FILLER_0_2_27
*1186 FILLER_0_2_277
*1187 FILLER_0_2_289
*1188 FILLER_0_2_29
*1189 FILLER_0_2_3
*1190 FILLER_0_2_301
*1191 FILLER_0_2_307
*1192 FILLER_0_2_309
*1193 FILLER_0_2_321
*1194 FILLER_0_2_333
*1195 FILLER_0_2_41
*1196 FILLER_0_2_53
*1197 FILLER_0_2_65
*1198 FILLER_0_2_77
*1199 FILLER_0_2_83
*1200 FILLER_0_2_85
*1201 FILLER_0_2_97
*1202 FILLER_0_30_105
*1203 FILLER_0_30_117
*1204 FILLER_0_30_129
*1205 FILLER_0_30_137
*1206 FILLER_0_30_15
*1207 FILLER_0_30_161
*1208 FILLER_0_30_173
*1209 FILLER_0_30_197
*1210 FILLER_0_30_205
*1211 FILLER_0_30_214
*1212 FILLER_0_30_238
*1213 FILLER_0_30_250
*1214 FILLER_0_30_27
*1215 FILLER_0_30_276
*1216 FILLER_0_30_280
*1217 FILLER_0_30_284
*1218 FILLER_0_30_29
*1219 FILLER_0_30_3
*1220 FILLER_0_30_303
*1221 FILLER_0_30_307
*1222 FILLER_0_30_309
*1223 FILLER_0_30_322
*1224 FILLER_0_30_334
*1225 FILLER_0_30_63
*1226 FILLER_0_31_104
*1227 FILLER_0_31_113
*1228 FILLER_0_31_133
*1229 FILLER_0_31_15
*1230 FILLER_0_31_154
*1231 FILLER_0_31_162
*1232 FILLER_0_31_167
*1233 FILLER_0_31_206
*1234 FILLER_0_31_212
*1235 FILLER_0_31_222
*1236 FILLER_0_31_225
*1237 FILLER_0_31_231
*1238 FILLER_0_31_238
*1239 FILLER_0_31_250
*1240 FILLER_0_31_261
*1241 FILLER_0_31_27
*1242 FILLER_0_31_273
*1243 FILLER_0_31_279
*1244 FILLER_0_31_3
*1245 FILLER_0_31_329
*1246 FILLER_0_31_35
*1247 FILLER_0_31_77
*1248 FILLER_0_32_103
*1249 FILLER_0_32_133
*1250 FILLER_0_32_139
*1251 FILLER_0_32_141
*1252 FILLER_0_32_15
*1253 FILLER_0_32_153
*1254 FILLER_0_32_169
*1255 FILLER_0_32_220
*1256 FILLER_0_32_228
*1257 FILLER_0_32_248
*1258 FILLER_0_32_256
*1259 FILLER_0_32_27
*1260 FILLER_0_32_287
*1261 FILLER_0_32_29
*1262 FILLER_0_32_3
*1263 FILLER_0_32_329
*1264 FILLER_0_32_56
*1265 FILLER_0_32_91
*1266 FILLER_0_33_102
*1267 FILLER_0_33_110
*1268 FILLER_0_33_113
*1269 FILLER_0_33_145
*1270 FILLER_0_33_15
*1271 FILLER_0_33_157
*1272 FILLER_0_33_165
*1273 FILLER_0_33_169
*1274 FILLER_0_33_181
*1275 FILLER_0_33_193
*1276 FILLER_0_33_201
*1277 FILLER_0_33_208
*1278 FILLER_0_33_220
*1279 FILLER_0_33_225
*1280 FILLER_0_33_267
*1281 FILLER_0_33_27
*1282 FILLER_0_33_284
*1283 FILLER_0_33_296
*1284 FILLER_0_33_3
*1285 FILLER_0_33_308
*1286 FILLER_0_33_320
*1287 FILLER_0_33_332
*1288 FILLER_0_33_48
*1289 FILLER_0_33_57
*1290 FILLER_0_33_69
*1291 FILLER_0_33_90
*1292 FILLER_0_34_105
*1293 FILLER_0_34_117
*1294 FILLER_0_34_128
*1295 FILLER_0_34_147
*1296 FILLER_0_34_15
*1297 FILLER_0_34_155
*1298 FILLER_0_34_182
*1299 FILLER_0_34_194
*1300 FILLER_0_34_197
*1301 FILLER_0_34_209
*1302 FILLER_0_34_221
*1303 FILLER_0_34_249
*1304 FILLER_0_34_253
*1305 FILLER_0_34_259
*1306 FILLER_0_34_27
*1307 FILLER_0_34_287
*1308 FILLER_0_34_29
*1309 FILLER_0_34_291
*1310 FILLER_0_34_3
*1311 FILLER_0_34_303
*1312 FILLER_0_34_307
*1313 FILLER_0_34_309
*1314 FILLER_0_34_314
*1315 FILLER_0_34_326
*1316 FILLER_0_34_334
*1317 FILLER_0_34_41
*1318 FILLER_0_34_53
*1319 FILLER_0_34_65
*1320 FILLER_0_35_108
*1321 FILLER_0_35_113
*1322 FILLER_0_35_118
*1323 FILLER_0_35_15
*1324 FILLER_0_35_152
*1325 FILLER_0_35_189
*1326 FILLER_0_35_212
*1327 FILLER_0_35_225
*1328 FILLER_0_35_233
*1329 FILLER_0_35_240
*1330 FILLER_0_35_252
*1331 FILLER_0_35_264
*1332 FILLER_0_35_27
*1333 FILLER_0_35_276
*1334 FILLER_0_35_281
*1335 FILLER_0_35_3
*1336 FILLER_0_35_305
*1337 FILLER_0_35_329
*1338 FILLER_0_35_39
*1339 FILLER_0_35_51
*1340 FILLER_0_35_55
*1341 FILLER_0_35_57
*1342 FILLER_0_35_69
*1343 FILLER_0_35_96
*1344 FILLER_0_36_110
*1345 FILLER_0_36_15
*1346 FILLER_0_36_153
*1347 FILLER_0_36_180
*1348 FILLER_0_36_188
*1349 FILLER_0_36_217
*1350 FILLER_0_36_232
*1351 FILLER_0_36_244
*1352 FILLER_0_36_259
*1353 FILLER_0_36_27
*1354 FILLER_0_36_29
*1355 FILLER_0_36_3
*1356 FILLER_0_36_41
*1357 FILLER_0_36_53
*1358 FILLER_0_36_61
*1359 FILLER_0_36_98
*1360 FILLER_0_37_105
*1361 FILLER_0_37_111
*1362 FILLER_0_37_141
*1363 FILLER_0_37_15
*1364 FILLER_0_37_153
*1365 FILLER_0_37_161
*1366 FILLER_0_37_189
*1367 FILLER_0_37_193
*1368 FILLER_0_37_217
*1369 FILLER_0_37_223
*1370 FILLER_0_37_27
*1371 FILLER_0_37_279
*1372 FILLER_0_37_3
*1373 FILLER_0_37_307
*1374 FILLER_0_37_330
*1375 FILLER_0_37_334
*1376 FILLER_0_37_39
*1377 FILLER_0_37_51
*1378 FILLER_0_37_55
*1379 FILLER_0_37_57
*1380 FILLER_0_37_93
*1381 FILLER_0_38_10
*1382 FILLER_0_38_102
*1383 FILLER_0_38_106
*1384 FILLER_0_38_110
*1385 FILLER_0_38_113
*1386 FILLER_0_38_118
*1387 FILLER_0_38_122
*1388 FILLER_0_38_126
*1389 FILLER_0_38_130
*1390 FILLER_0_38_134
*1391 FILLER_0_38_14
*1392 FILLER_0_38_144
*1393 FILLER_0_38_150
*1394 FILLER_0_38_154
*1395 FILLER_0_38_158
*1396 FILLER_0_38_166
*1397 FILLER_0_38_169
*1398 FILLER_0_38_176
*1399 FILLER_0_38_18
*1400 FILLER_0_38_188
*1401 FILLER_0_38_197
*1402 FILLER_0_38_212
*1403 FILLER_0_38_22
*1404 FILLER_0_38_225
*1405 FILLER_0_38_237
*1406 FILLER_0_38_246
*1407 FILLER_0_38_274
*1408 FILLER_0_38_278
*1409 FILLER_0_38_281
*1410 FILLER_0_38_286
*1411 FILLER_0_38_290
*1412 FILLER_0_38_294
*1413 FILLER_0_38_298
*1414 FILLER_0_38_302
*1415 FILLER_0_38_32
*1416 FILLER_0_38_334
*1417 FILLER_0_38_38
*1418 FILLER_0_38_42
*1419 FILLER_0_38_46
*1420 FILLER_0_38_50
*1421 FILLER_0_38_54
*1422 FILLER_0_38_57
*1423 FILLER_0_38_6
*1424 FILLER_0_38_62
*1425 FILLER_0_38_66
*1426 FILLER_0_38_70
*1427 FILLER_0_38_82
*1428 FILLER_0_38_88
*1429 FILLER_0_38_94
*1430 FILLER_0_38_98
*1431 FILLER_0_3_105
*1432 FILLER_0_3_111
*1433 FILLER_0_3_113
*1434 FILLER_0_3_125
*1435 FILLER_0_3_137
*1436 FILLER_0_3_149
*1437 FILLER_0_3_15
*1438 FILLER_0_3_161
*1439 FILLER_0_3_167
*1440 FILLER_0_3_169
*1441 FILLER_0_3_181
*1442 FILLER_0_3_193
*1443 FILLER_0_3_205
*1444 FILLER_0_3_217
*1445 FILLER_0_3_223
*1446 FILLER_0_3_225
*1447 FILLER_0_3_237
*1448 FILLER_0_3_249
*1449 FILLER_0_3_261
*1450 FILLER_0_3_27
*1451 FILLER_0_3_273
*1452 FILLER_0_3_279
*1453 FILLER_0_3_281
*1454 FILLER_0_3_293
*1455 FILLER_0_3_3
*1456 FILLER_0_3_305
*1457 FILLER_0_3_317
*1458 FILLER_0_3_329
*1459 FILLER_0_3_39
*1460 FILLER_0_3_51
*1461 FILLER_0_3_55
*1462 FILLER_0_3_57
*1463 FILLER_0_3_69
*1464 FILLER_0_3_81
*1465 FILLER_0_3_93
*1466 FILLER_0_4_109
*1467 FILLER_0_4_121
*1468 FILLER_0_4_133
*1469 FILLER_0_4_139
*1470 FILLER_0_4_141
*1471 FILLER_0_4_15
*1472 FILLER_0_4_153
*1473 FILLER_0_4_165
*1474 FILLER_0_4_177
*1475 FILLER_0_4_189
*1476 FILLER_0_4_195
*1477 FILLER_0_4_197
*1478 FILLER_0_4_209
*1479 FILLER_0_4_221
*1480 FILLER_0_4_233
*1481 FILLER_0_4_245
*1482 FILLER_0_4_251
*1483 FILLER_0_4_253
*1484 FILLER_0_4_265
*1485 FILLER_0_4_27
*1486 FILLER_0_4_277
*1487 FILLER_0_4_289
*1488 FILLER_0_4_29
*1489 FILLER_0_4_3
*1490 FILLER_0_4_301
*1491 FILLER_0_4_307
*1492 FILLER_0_4_309
*1493 FILLER_0_4_321
*1494 FILLER_0_4_333
*1495 FILLER_0_4_41
*1496 FILLER_0_4_53
*1497 FILLER_0_4_65
*1498 FILLER_0_4_77
*1499 FILLER_0_4_83
*1500 FILLER_0_4_85
*1501 FILLER_0_4_97
*1502 FILLER_0_5_105
*1503 FILLER_0_5_111
*1504 FILLER_0_5_113
*1505 FILLER_0_5_125
*1506 FILLER_0_5_137
*1507 FILLER_0_5_149
*1508 FILLER_0_5_15
*1509 FILLER_0_5_161
*1510 FILLER_0_5_167
*1511 FILLER_0_5_169
*1512 FILLER_0_5_181
*1513 FILLER_0_5_193
*1514 FILLER_0_5_205
*1515 FILLER_0_5_217
*1516 FILLER_0_5_223
*1517 FILLER_0_5_225
*1518 FILLER_0_5_237