*SPEF "ieee 1481-1999"
*DESIGN "tt_um_hsc_tdc_buf"
*DATE "18:41:30 Friday April 19, 2024"
*VENDOR "The OpenROAD Project"
*PROGRAM "OpenROAD"
*VERSION "0889970d1790a2617e69f253221b8bd7626e51dc"
*DESIGN_FLOW "NAME_SCOPE LOCAL" "PIN_CAP NONE"
*DIVIDER /
*DELIMITER :
*BUS_DELIMITER []
*T_UNIT 1 NS
*C_UNIT 1 PF
*R_UNIT 1 OHM
*L_UNIT 1 HENRY

*NAME_MAP
*3 clk
*4 ena
*5 rst_n
*6 ui_in[0]
*7 ui_in[1]
*8 ui_in[2]
*9 ui_in[3]
*10 ui_in[4]
*11 ui_in[5]
*12 ui_in[6]
*13 ui_in[7]
*14 uio_in[0]
*15 uio_in[1]
*16 uio_in[2]
*17 uio_in[3]
*18 uio_in[4]
*19 uio_in[5]
*20 uio_in[6]
*21 uio_in[7]
*22 net25
*23 net26
*24 net27
*25 net28
*26 net29
*27 net30
*28 net31
*29 net32
*30 net17
*31 net18
*32 net19
*33 net20
*34 net21
*35 net22
*36 net23
*37 net24
*38 uo_out[0]
*39 uo_out[1]
*40 uo_out[2]
*41 uo_out[3]
*42 uo_out[4]
*43 uo_out[5]
*44 uo_out[6]
*45 uo_out[7]
*46 _0000_
*47 _0001_
*48 _0002_
*49 _0003_
*50 _0004_
*51 _0005_
*52 _0006_
*53 _0007_
*54 _0008_
*55 _0009_
*56 _0010_
*57 _0011_
*58 _0012_
*59 _0013_
*60 _0014_
*61 _0015_
*62 _0016_
*63 _0017_
*64 _0018_
*65 _0019_
*66 _0020_
*67 _0021_
*68 _0022_
*69 _0023_
*70 _0024_
*71 _0025_
*72 _0026_
*73 _0027_
*74 _0028_
*75 _0029_
*76 _0030_
*77 _0031_
*78 _0032_
*79 _0033_
*80 _0034_
*81 _0035_
*82 _0036_
*83 _0037_
*84 _0038_
*85 _0039_
*86 _0040_
*87 _0041_
*88 _0042_
*89 _0043_
*90 _0044_
*91 _0045_
*92 _0046_
*93 _0047_
*94 _0048_
*95 _0049_
*96 _0050_
*97 _0051_
*98 _0052_
*99 _0053_
*100 _0054_
*101 _0055_
*102 _0056_
*103 _0057_
*104 _0058_
*105 _0059_
*106 _0060_
*107 _0061_
*108 _0062_
*109 _0063_
*110 _0064_
*111 _0065_
*112 _0066_
*113 _0067_
*114 _0068_
*115 _0069_
*116 _0070_
*117 _0071_
*118 _0072_
*119 _0073_
*120 _0074_
*121 _0075_
*122 _0076_
*123 _0077_
*124 _0078_
*125 _0079_
*126 _0080_
*127 _0081_
*128 _0082_
*129 _0083_
*130 _0084_
*131 _0085_
*132 _0086_
*133 _0087_
*134 _0088_
*135 _0089_
*136 _0090_
*137 _0091_
*138 _0092_
*139 _0093_
*140 _0094_
*141 _0095_
*142 _0096_
*143 _0097_
*144 _0098_
*145 _0099_
*146 _0100_
*147 _0101_
*148 _0102_
*149 _0103_
*150 _0104_
*151 _0105_
*152 _0106_
*153 _0107_
*154 _0108_
*155 _0109_
*156 _0110_
*157 _0111_
*158 _0112_
*159 _0113_
*160 _0114_
*161 _0115_
*162 _0116_
*163 _0117_
*164 _0118_
*165 _0119_
*166 _0120_
*167 _0121_
*168 _0122_
*169 _0123_
*170 _0124_
*171 _0125_
*172 _0126_
*173 _0127_
*174 _0128_
*175 _0129_
*176 _0130_
*177 _0131_
*178 _0132_
*179 _0133_
*180 _0134_
*181 _0135_
*182 _0136_
*183 _0137_
*184 _0138_
*185 _0139_
*186 _0140_
*187 _0141_
*188 _0142_
*189 _0143_
*190 _0144_
*191 _0145_
*192 _0146_
*193 _0147_
*194 _0148_
*195 _0149_
*196 _0150_
*197 _0151_
*198 _0152_
*199 _0153_
*200 _0154_
*201 _0155_
*202 _0156_
*203 _0157_
*204 _0158_
*205 _0159_
*206 _0160_
*207 _0161_
*208 _0162_
*209 _0163_
*210 _0164_
*211 _0165_
*212 _0166_
*213 _0167_
*214 _0168_
*215 _0169_
*216 _0170_
*217 _0171_
*218 _0172_
*219 _0173_
*220 _0174_
*221 _0175_
*222 _0176_
*223 _0177_
*224 _0178_
*225 _0179_
*226 _0180_
*227 _0181_
*228 _0182_
*229 _0183_
*230 _0184_
*231 _0185_
*232 _0186_
*233 _0187_
*234 _0188_
*235 _0189_
*236 _0190_
*237 _0191_
*238 _0192_
*239 _0193_
*240 _0194_
*241 _0195_
*242 _0196_
*243 _0197_
*244 _0198_
*245 _0199_
*246 _0200_
*247 _0201_
*248 _0202_
*249 _0203_
*250 _0204_
*251 _0205_
*252 _0206_
*253 _0207_
*254 _0208_
*255 _0209_
*256 _0210_
*257 _0211_
*258 _0212_
*259 _0213_
*260 _0214_
*261 _0215_
*262 _0216_
*263 _0217_
*264 _0218_
*265 _0219_
*266 _0220_
*267 _0221_
*268 _0222_
*269 _0223_
*270 _0224_
*271 _0225_
*272 _0226_
*273 _0227_
*274 _0228_
*275 _0229_
*276 _0230_
*277 _0231_
*278 _0232_
*279 _0233_
*280 _0234_
*281 _0235_
*282 _0236_
*283 _0237_
*284 _0238_
*285 _0239_
*286 _0240_
*287 _0241_
*288 _0242_
*289 _0243_
*290 _0244_
*291 _0245_
*292 _0246_
*293 _0247_
*294 _0248_
*295 _0249_
*296 _0250_
*297 _0251_
*298 _0252_
*299 _0253_
*300 _0254_
*301 _0255_
*302 _0256_
*303 _0257_
*304 _0258_
*305 _0259_
*306 _0260_
*307 _0261_
*308 _0262_
*309 _0263_
*310 _0264_
*311 _0265_
*312 _0266_
*313 _0267_
*314 _0268_
*315 _0269_
*316 _0270_
*317 _0271_
*318 _0272_
*319 _0273_
*320 _0274_
*321 _0275_
*322 _0276_
*323 _0277_
*324 _0278_
*325 _0279_
*326 _0280_
*327 _0281_
*328 _0282_
*329 _0283_
*330 _0284_
*331 _0285_
*332 _0286_
*333 _0287_
*334 _0288_
*335 _0289_
*336 _0290_
*337 _0291_
*338 _0292_
*339 _0293_
*340 _0294_
*341 _0295_
*342 _0296_
*343 _0297_
*344 _0298_
*345 _0299_
*346 _0300_
*347 _0301_
*348 _0302_
*349 _0303_
*350 _0304_
*351 _0305_
*352 _0306_
*353 _0307_
*354 _0308_
*355 _0309_
*356 _0310_
*357 _0311_
*358 _0312_
*359 _0313_
*360 _0314_
*361 _0315_
*362 _0316_
*363 _0317_
*364 _0318_
*365 _0319_
*366 _0320_
*367 _0321_
*368 _0322_
*369 _0323_
*370 _0324_
*371 _0325_
*372 _0326_
*373 _0327_
*374 _0328_
*375 _0329_
*376 _0330_
*377 _0331_
*378 _0332_
*379 _0333_
*380 _0334_
*381 _0335_
*382 _0336_
*383 _0337_
*384 _0338_
*385 _0339_
*386 _0340_
*387 _0341_
*388 _0342_
*389 _0343_
*390 _0344_
*391 _0345_
*392 _0346_
*393 _0347_
*394 _0348_
*395 _0349_
*396 _0350_
*397 _0351_
*398 _0352_
*399 _0353_
*400 _0354_
*401 _0355_
*402 _0356_
*403 _0357_
*404 _0358_
*405 _0359_
*406 _0360_
*407 _0361_
*408 _0362_
*409 _0363_
*410 _0364_
*411 _0365_
*412 _0366_
*413 _0367_
*414 _0368_
*415 _0369_
*416 _0370_
*417 _0371_
*418 _0372_
*419 _0373_
*420 _0374_
*421 _0375_
*422 _0376_
*423 _0377_
*424 _0378_
*425 _0379_
*426 _0380_
*427 _0381_
*428 _0382_
*429 _0383_
*430 _0384_
*431 _0385_
*432 _0386_
*433 _0387_
*434 _0388_
*435 _0389_
*436 _0390_
*437 _0391_
*438 _0392_
*439 _0393_
*440 _0394_
*441 _0395_
*442 _0396_
*443 _0397_
*444 _0398_
*445 _0399_
*446 _0400_
*447 _0401_
*448 _0402_
*449 _0403_
*450 _0404_
*451 _0405_
*452 _0406_
*453 _0407_
*454 _0408_
*455 _0409_
*456 _0410_
*457 _0411_
*458 _0412_
*459 _0413_
*460 _0414_
*461 _0415_
*462 _0416_
*463 _0417_
*464 _0418_
*465 _0419_
*466 _0420_
*467 _0421_
*468 _0422_
*469 _0423_
*470 _0424_
*471 _0425_
*472 _0426_
*473 _0427_
*474 _0428_
*475 _0429_
*476 _0430_
*477 _0431_
*478 _0432_
*479 _0433_
*480 _0434_
*481 _0435_
*482 _0436_
*483 _0437_
*484 _0438_
*485 _0439_
*486 _0440_
*487 _0441_
*488 _0442_
*489 _0443_
*490 _0444_
*491 _0445_
*492 _0446_
*493 _0447_
*494 _0448_
*495 _0449_
*496 _0450_
*497 _0451_
*498 _0452_
*499 _0453_
*500 _0454_
*501 _0455_
*502 _0456_
*503 _0457_
*504 _0458_
*505 _0459_
*506 _0460_
*507 _0461_
*508 _0462_
*509 _0463_
*510 _0464_
*511 _0465_
*512 _0466_
*513 _0467_
*514 _0468_
*515 _0469_
*516 clknet_0_ui_in[0]
*517 clknet_0_ui_in[1]
*518 clknet_1_0__leaf_ui_in[0]
*519 clknet_1_1__leaf_ui_in[0]
*520 clknet_4_0_0_ui_in[1]
*521 clknet_4_10_0_ui_in[1]
*522 clknet_4_11_0_ui_in[1]
*523 clknet_4_12_0_ui_in[1]
*524 clknet_4_13_0_ui_in[1]
*525 clknet_4_14_0_ui_in[1]
*526 clknet_4_15_0_ui_in[1]
*527 clknet_4_1_0_ui_in[1]
*528 clknet_4_2_0_ui_in[1]
*529 clknet_4_3_0_ui_in[1]
*530 clknet_4_4_0_ui_in[1]
*531 clknet_4_5_0_ui_in[1]
*532 clknet_4_6_0_ui_in[1]
*533 clknet_4_7_0_ui_in[1]
*534 clknet_4_8_0_ui_in[1]
*535 clknet_4_9_0_ui_in[1]
*536 net1
*537 net10
*538 net100
*539 net101
*540 net102
*541 net103
*542 net104
*543 net105
*544 net106
*545 net107
*546 net108
*547 net109
*548 net11
*549 net110
*550 net111
*551 net112
*552 net113
*553 net114
*554 net115
*555 net116
*556 net117
*557 net118
*558 net119
*559 net12
*560 net120
*561 net121
*562 net122
*563 net123
*564 net124
*565 net125
*566 net126
*567 net127
*568 net128
*569 net129
*570 net13
*571 net130
*572 net131
*573 net132
*574 net133
*575 net134
*576 net135
*577 net136
*578 net137
*579 net138
*580 net139
*581 net14
*582 net140
*583 net141
*584 net142
*585 net143
*586 net144
*587 net145
*588 net146
*589 net147
*590 net15
*591 net16
*592 net2
*593 net3
*594 net33
*595 net34
*596 net35
*597 net36
*598 net37
*599 net38
*600 net39
*601 net4
*602 net40
*603 net41
*604 net42
*605 net43
*606 net44
*607 net45
*608 net46
*609 net47
*610 net48
*611 net49
*612 net5
*613 net50
*614 net51
*615 net52
*616 net53
*617 net54
*618 net55
*619 net56
*620 net57
*621 net58
*622 net59
*623 net6
*624 net60
*625 net61
*626 net62
*627 net63
*628 net64
*629 net65
*630 net66
*631 net67
*632 net68
*633 net69
*634 net7
*635 net70
*636 net71
*637 net72
*638 net73
*639 net74
*640 net75
*641 net76
*642 net77
*643 net78
*644 net79
*645 net8
*646 net80
*647 net81
*648 net82
*649 net83
*650 net84
*651 net85
*652 net86
*653 net87
*654 net88
*655 net89
*656 net9
*657 net90
*658 net91
*659 net92
*660 net93
*661 net94
*662 net95
*663 net96
*664 net97
*665 net98
*666 net99
*667 tdc_inst\.capt_out\[0\]
*668 tdc_inst\.capt_out\[10\]
*669 tdc_inst\.capt_out\[11\]
*670 tdc_inst\.capt_out\[12\]
*671 tdc_inst\.capt_out\[13\]
*672 tdc_inst\.capt_out\[14\]
*673 tdc_inst\.capt_out\[15\]
*674 tdc_inst\.capt_out\[16\]
*675 tdc_inst\.capt_out\[17\]
*676 tdc_inst\.capt_out\[18\]
*677 tdc_inst\.capt_out\[19\]
*678 tdc_inst\.capt_out\[1\]
*679 tdc_inst\.capt_out\[20\]
*680 tdc_inst\.capt_out\[21\]
*681 tdc_inst\.capt_out\[22\]
*682 tdc_inst\.capt_out\[23\]
*683 tdc_inst\.capt_out\[24\]
*684 tdc_inst\.capt_out\[25\]
*685 tdc_inst\.capt_out\[26\]
*686 tdc_inst\.capt_out\[27\]
*687 tdc_inst\.capt_out\[28\]
*688 tdc_inst\.capt_out\[29\]
*689 tdc_inst\.capt_out\[2\]
*690 tdc_inst\.capt_out\[30\]
*691 tdc_inst\.capt_out\[31\]
*692 tdc_inst\.capt_out\[32\]
*693 tdc_inst\.capt_out\[33\]
*694 tdc_inst\.capt_out\[34\]
*695 tdc_inst\.capt_out\[35\]
*696 tdc_inst\.capt_out\[36\]
*697 tdc_inst\.capt_out\[37\]
*698 tdc_inst\.capt_out\[38\]
*699 tdc_inst\.capt_out\[39\]
*700 tdc_inst\.capt_out\[3\]
*701 tdc_inst\.capt_out\[40\]
*702 tdc_inst\.capt_out\[41\]
*703 tdc_inst\.capt_out\[42\]
*704 tdc_inst\.capt_out\[43\]
*705 tdc_inst\.capt_out\[44\]
*706 tdc_inst\.capt_out\[45\]
*707 tdc_inst\.capt_out\[46\]
*708 tdc_inst\.capt_out\[47\]
*709 tdc_inst\.capt_out\[48\]
*710 tdc_inst\.capt_out\[49\]
*711 tdc_inst\.capt_out\[4\]
*712 tdc_inst\.capt_out\[50\]
*713 tdc_inst\.capt_out\[51\]
*714 tdc_inst\.capt_out\[52\]
*715 tdc_inst\.capt_out\[53\]
*716 tdc_inst\.capt_out\[54\]
*717 tdc_inst\.capt_out\[55\]
*718 tdc_inst\.capt_out\[56\]
*719 tdc_inst\.capt_out\[57\]
*720 tdc_inst\.capt_out\[58\]
*721 tdc_inst\.capt_out\[59\]
*722 tdc_inst\.capt_out\[5\]
*723 tdc_inst\.capt_out\[60\]
*724 tdc_inst\.capt_out\[61\]
*725 tdc_inst\.capt_out\[62\]
*726 tdc_inst\.capt_out\[63\]
*727 tdc_inst\.capt_out\[6\]
*728 tdc_inst\.capt_out\[7\]
*729 tdc_inst\.capt_out\[8\]
*730 tdc_inst\.capt_out\[9\]
*731 tdc_inst\.capt_reg_r\[1\]\[0\]
*732 tdc_inst\.capt_reg_r\[1\]\[10\]
*733 tdc_inst\.capt_reg_r\[1\]\[11\]
*734 tdc_inst\.capt_reg_r\[1\]\[12\]
*735 tdc_inst\.capt_reg_r\[1\]\[13\]
*736 tdc_inst\.capt_reg_r\[1\]\[14\]
*737 tdc_inst\.capt_reg_r\[1\]\[15\]
*738 tdc_inst\.capt_reg_r\[1\]\[16\]
*739 tdc_inst\.capt_reg_r\[1\]\[17\]
*740 tdc_inst\.capt_reg_r\[1\]\[18\]
*741 tdc_inst\.capt_reg_r\[1\]\[19\]
*742 tdc_inst\.capt_reg_r\[1\]\[1\]
*743 tdc_inst\.capt_reg_r\[1\]\[20\]
*744 tdc_inst\.capt_reg_r\[1\]\[21\]
*745 tdc_inst\.capt_reg_r\[1\]\[22\]
*746 tdc_inst\.capt_reg_r\[1\]\[23\]
*747 tdc_inst\.capt_reg_r\[1\]\[24\]
*748 tdc_inst\.capt_reg_r\[1\]\[25\]
*749 tdc_inst\.capt_reg_r\[1\]\[26\]
*750 tdc_inst\.capt_reg_r\[1\]\[27\]
*751 tdc_inst\.capt_reg_r\[1\]\[28\]
*752 tdc_inst\.capt_reg_r\[1\]\[29\]
*753 tdc_inst\.capt_reg_r\[1\]\[2\]
*754 tdc_inst\.capt_reg_r\[1\]\[30\]
*755 tdc_inst\.capt_reg_r\[1\]\[31\]
*756 tdc_inst\.capt_reg_r\[1\]\[32\]
*757 tdc_inst\.capt_reg_r\[1\]\[33\]
*758 tdc_inst\.capt_reg_r\[1\]\[34\]
*759 tdc_inst\.capt_reg_r\[1\]\[35\]
*760 tdc_inst\.capt_reg_r\[1\]\[36\]
*761 tdc_inst\.capt_reg_r\[1\]\[37\]
*762 tdc_inst\.capt_reg_r\[1\]\[38\]
*763 tdc_inst\.capt_reg_r\[1\]\[39\]
*764 tdc_inst\.capt_reg_r\[1\]\[3\]
*765 tdc_inst\.capt_reg_r\[1\]\[40\]
*766 tdc_inst\.capt_reg_r\[1\]\[41\]
*767 tdc_inst\.capt_reg_r\[1\]\[42\]
*768 tdc_inst\.capt_reg_r\[1\]\[43\]
*769 tdc_inst\.capt_reg_r\[1\]\[44\]
*770 tdc_inst\.capt_reg_r\[1\]\[45\]
*771 tdc_inst\.capt_reg_r\[1\]\[46\]
*772 tdc_inst\.capt_reg_r\[1\]\[47\]
*773 tdc_inst\.capt_reg_r\[1\]\[48\]
*774 tdc_inst\.capt_reg_r\[1\]\[49\]
*775 tdc_inst\.capt_reg_r\[1\]\[4\]
*776 tdc_inst\.capt_reg_r\[1\]\[50\]
*777 tdc_inst\.capt_reg_r\[1\]\[51\]
*778 tdc_inst\.capt_reg_r\[1\]\[52\]
*779 tdc_inst\.capt_reg_r\[1\]\[53\]
*780 tdc_inst\.capt_reg_r\[1\]\[54\]
*781 tdc_inst\.capt_reg_r\[1\]\[55\]
*782 tdc_inst\.capt_reg_r\[1\]\[56\]
*783 tdc_inst\.capt_reg_r\[1\]\[57\]
*784 tdc_inst\.capt_reg_r\[1\]\[58\]
*785 tdc_inst\.capt_reg_r\[1\]\[59\]
*786 tdc_inst\.capt_reg_r\[1\]\[5\]
*787 tdc_inst\.capt_reg_r\[1\]\[60\]
*788 tdc_inst\.capt_reg_r\[1\]\[61\]
*789 tdc_inst\.capt_reg_r\[1\]\[62\]
*790 tdc_inst\.capt_reg_r\[1\]\[63\]
*791 tdc_inst\.capt_reg_r\[1\]\[6\]
*792 tdc_inst\.capt_reg_r\[1\]\[7\]
*793 tdc_inst\.capt_reg_r\[1\]\[8\]
*794 tdc_inst\.capt_reg_r\[1\]\[9\]
*795 tdc_inst\.dl_inst\.dl_genblk\.dl\.ffout_w\[0\]
*796 tdc_inst\.dl_inst\.dl_genblk\.dl\.ffout_w\[10\]
*797 tdc_inst\.dl_inst\.dl_genblk\.dl\.ffout_w\[11\]
*798 tdc_inst\.dl_inst\.dl_genblk\.dl\.ffout_w\[12\]
*799 tdc_inst\.dl_inst\.dl_genblk\.dl\.ffout_w\[13\]
*800 tdc_inst\.dl_inst\.dl_genblk\.dl\.ffout_w\[14\]
*801 tdc_inst\.dl_inst\.dl_genblk\.dl\.ffout_w\[15\]
*802 tdc_inst\.dl_inst\.dl_genblk\.dl\.ffout_w\[16\]
*803 tdc_inst\.dl_inst\.dl_genblk\.dl\.ffout_w\[17\]
*804 tdc_inst\.dl_inst\.dl_genblk\.dl\.ffout_w\[18\]
*805 tdc_inst\.dl_inst\.dl_genblk\.dl\.ffout_w\[19\]
*806 tdc_inst\.dl_inst\.dl_genblk\.dl\.ffout_w\[1\]
*807 tdc_inst\.dl_inst\.dl_genblk\.dl\.ffout_w\[20\]
*808 tdc_inst\.dl_inst\.dl_genblk\.dl\.ffout_w\[21\]
*809 tdc_inst\.dl_inst\.dl_genblk\.dl\.ffout_w\[22\]
*810 tdc_inst\.dl_inst\.dl_genblk\.dl\.ffout_w\[23\]
*811 tdc_inst\.dl_inst\.dl_genblk\.dl\.ffout_w\[24\]
*812 tdc_inst\.dl_inst\.dl_genblk\.dl\.ffout_w\[25\]
*813 tdc_inst\.dl_inst\.dl_genblk\.dl\.ffout_w\[26\]
*814 tdc_inst\.dl_inst\.dl_genblk\.dl\.ffout_w\[27\]
*815 tdc_inst\.dl_inst\.dl_genblk\.dl\.ffout_w\[28\]
*816 tdc_inst\.dl_inst\.dl_genblk\.dl\.ffout_w\[29\]
*817 tdc_inst\.dl_inst\.dl_genblk\.dl\.ffout_w\[2\]
*818 tdc_inst\.dl_inst\.dl_genblk\.dl\.ffout_w\[30\]
*819 tdc_inst\.dl_inst\.dl_genblk\.dl\.ffout_w\[31\]
*820 tdc_inst\.dl_inst\.dl_genblk\.dl\.ffout_w\[32\]
*821 tdc_inst\.dl_inst\.dl_genblk\.dl\.ffout_w\[33\]
*822 tdc_inst\.dl_inst\.dl_genblk\.dl\.ffout_w\[34\]
*823 tdc_inst\.dl_inst\.dl_genblk\.dl\.ffout_w\[35\]
*824 tdc_inst\.dl_inst\.dl_genblk\.dl\.ffout_w\[36\]
*825 tdc_inst\.dl_inst\.dl_genblk\.dl\.ffout_w\[37\]
*826 tdc_inst\.dl_inst\.dl_genblk\.dl\.ffout_w\[38\]
*827 tdc_inst\.dl_inst\.dl_genblk\.dl\.ffout_w\[39\]
*828 tdc_inst\.dl_inst\.dl_genblk\.dl\.ffout_w\[3\]
*829 tdc_inst\.dl_inst\.dl_genblk\.dl\.ffout_w\[40\]
*830 tdc_inst\.dl_inst\.dl_genblk\.dl\.ffout_w\[41\]
*831 tdc_inst\.dl_inst\.dl_genblk\.dl\.ffout_w\[42\]
*832 tdc_inst\.dl_inst\.dl_genblk\.dl\.ffout_w\[43\]
*833 tdc_inst\.dl_inst\.dl_genblk\.dl\.ffout_w\[44\]
*834 tdc_inst\.dl_inst\.dl_genblk\.dl\.ffout_w\[45\]
*835 tdc_inst\.dl_inst\.dl_genblk\.dl\.ffout_w\[46\]
*836 tdc_inst\.dl_inst\.dl_genblk\.dl\.ffout_w\[47\]
*837 tdc_inst\.dl_inst\.dl_genblk\.dl\.ffout_w\[48\]
*838 tdc_inst\.dl_inst\.dl_genblk\.dl\.ffout_w\[49\]
*839 tdc_inst\.dl_inst\.dl_genblk\.dl\.ffout_w\[4\]
*840 tdc_inst\.dl_inst\.dl_genblk\.dl\.ffout_w\[50\]
*841 tdc_inst\.dl_inst\.dl_genblk\.dl\.ffout_w\[51\]
*842 tdc_inst\.dl_inst\.dl_genblk\.dl\.ffout_w\[52\]
*843 tdc_inst\.dl_inst\.dl_genblk\.dl\.ffout_w\[53\]
*844 tdc_inst\.dl_inst\.dl_genblk\.dl\.ffout_w\[54\]
*845 tdc_inst\.dl_inst\.dl_genblk\.dl\.ffout_w\[55\]
*846 tdc_inst\.dl_inst\.dl_genblk\.dl\.ffout_w\[56\]
*847 tdc_inst\.dl_inst\.dl_genblk\.dl\.ffout_w\[57\]
*848 tdc_inst\.dl_inst\.dl_genblk\.dl\.ffout_w\[58\]
*849 tdc_inst\.dl_inst\.dl_genblk\.dl\.ffout_w\[59\]
*850 tdc_inst\.dl_inst\.dl_genblk\.dl\.ffout_w\[5\]
*851 tdc_inst\.dl_inst\.dl_genblk\.dl\.ffout_w\[60\]
*852 tdc_inst\.dl_inst\.dl_genblk\.dl\.ffout_w\[61\]
*853 tdc_inst\.dl_inst\.dl_genblk\.dl\.ffout_w\[62\]
*854 tdc_inst\.dl_inst\.dl_genblk\.dl\.ffout_w\[63\]
*855 tdc_inst\.dl_inst\.dl_genblk\.dl\.ffout_w\[64\]
*856 tdc_inst\.dl_inst\.dl_genblk\.dl\.ffout_w\[6\]
*857 tdc_inst\.dl_inst\.dl_genblk\.dl\.ffout_w\[7\]
*858 tdc_inst\.dl_inst\.dl_genblk\.dl\.ffout_w\[8\]
*859 tdc_inst\.dl_inst\.dl_genblk\.dl\.ffout_w\[9\]
*860 tdc_inst\.pc_inst\.val_in
*861 tdc_inst\.pc_inst\.val_out
*862 tdc_inst\.pg\.pg_r_out
*863 tdc_inst\.pg\.val_r_out
*864 tdc_inst\.pg_out
*865 tdc_inst\.val_out_capt
*866 FILLER_0_0_109
*867 FILLER_0_0_113
*868 FILLER_0_0_125
*869 FILLER_0_0_137
*870 FILLER_0_0_141
*871 FILLER_0_0_15
*872 FILLER_0_0_153
*873 FILLER_0_0_165
*874 FILLER_0_0_169
*875 FILLER_0_0_181
*876 FILLER_0_0_193
*877 FILLER_0_0_197
*878 FILLER_0_0_209
*879 FILLER_0_0_221
*880 FILLER_0_0_225
*881 FILLER_0_0_237
*882 FILLER_0_0_249
*883 FILLER_0_0_253
*884 FILLER_0_0_265
*885 FILLER_0_0_27
*886 FILLER_0_0_277
*887 FILLER_0_0_281
*888 FILLER_0_0_29
*889 FILLER_0_0_293
*890 FILLER_0_0_3
*891 FILLER_0_0_305
*892 FILLER_0_0_309
*893 FILLER_0_0_321
*894 FILLER_0_0_333
*895 FILLER_0_0_41
*896 FILLER_0_0_53
*897 FILLER_0_0_57
*898 FILLER_0_0_69
*899 FILLER_0_0_81
*900 FILLER_0_0_85
*901 FILLER_0_0_97
*902 FILLER_0_10_109
*903 FILLER_0_10_117
*904 FILLER_0_10_127
*905 FILLER_0_10_139
*906 FILLER_0_10_141
*907 FILLER_0_10_15
*908 FILLER_0_10_153
*909 FILLER_0_10_165
*910 FILLER_0_10_177
*911 FILLER_0_10_189
*912 FILLER_0_10_195
*913 FILLER_0_10_197
*914 FILLER_0_10_209
*915 FILLER_0_10_221
*916 FILLER_0_10_233
*917 FILLER_0_10_245
*918 FILLER_0_10_251
*919 FILLER_0_10_253
*920 FILLER_0_10_265
*921 FILLER_0_10_27
*922 FILLER_0_10_277
*923 FILLER_0_10_289
*924 FILLER_0_10_29
*925 FILLER_0_10_3
*926 FILLER_0_10_301
*927 FILLER_0_10_307
*928 FILLER_0_10_309
*929 FILLER_0_10_321
*930 FILLER_0_10_333
*931 FILLER_0_10_41
*932 FILLER_0_10_53
*933 FILLER_0_10_65
*934 FILLER_0_10_77
*935 FILLER_0_10_83
*936 FILLER_0_10_85
*937 FILLER_0_10_97
*938 FILLER_0_11_117
*939 FILLER_0_11_121
*940 FILLER_0_11_138
*941 FILLER_0_11_15
*942 FILLER_0_11_150
*943 FILLER_0_11_162
*944 FILLER_0_11_169
*945 FILLER_0_11_181
*946 FILLER_0_11_193
*947 FILLER_0_11_205
*948 FILLER_0_11_217
*949 FILLER_0_11_223
*950 FILLER_0_11_225
*951 FILLER_0_11_237
*952 FILLER_0_11_249
*953 FILLER_0_11_261
*954 FILLER_0_11_27
*955 FILLER_0_11_273
*956 FILLER_0_11_279
*957 FILLER_0_11_281
*958 FILLER_0_11_293
*959 FILLER_0_11_3
*960 FILLER_0_11_305
*961 FILLER_0_11_317
*962 FILLER_0_11_329
*963 FILLER_0_11_39
*964 FILLER_0_11_51
*965 FILLER_0_11_55
*966 FILLER_0_11_57
*967 FILLER_0_11_69
*968 FILLER_0_11_81
*969 FILLER_0_11_89
*970 FILLER_0_12_117
*971 FILLER_0_12_123
*972 FILLER_0_12_15
*973 FILLER_0_12_154
*974 FILLER_0_12_163
*975 FILLER_0_12_175
*976 FILLER_0_12_187
*977 FILLER_0_12_195
*978 FILLER_0_12_197
*979 FILLER_0_12_209
*980 FILLER_0_12_221
*981 FILLER_0_12_233
*982 FILLER_0_12_245
*983 FILLER_0_12_251
*984 FILLER_0_12_253
*985 FILLER_0_12_265
*986 FILLER_0_12_27
*987 FILLER_0_12_277
*988 FILLER_0_12_289
*989 FILLER_0_12_29
*990 FILLER_0_12_3
*991 FILLER_0_12_301
*992 FILLER_0_12_307
*993 FILLER_0_12_309
*994 FILLER_0_12_321
*995 FILLER_0_12_333
*996 FILLER_0_12_41
*997 FILLER_0_12_53
*998 FILLER_0_12_65
*999 FILLER_0_12_77
*1000 FILLER_0_12_83
*1001 FILLER_0_12_85
*1002 FILLER_0_12_89
*1003 FILLER_0_13_117
*1004 FILLER_0_13_15
*1005 FILLER_0_13_164
*1006 FILLER_0_13_186
*1007 FILLER_0_13_198
*1008 FILLER_0_13_210
*1009 FILLER_0_13_222
*1010 FILLER_0_13_225
*1011 FILLER_0_13_237
*1012 FILLER_0_13_249
*1013 FILLER_0_13_261
*1014 FILLER_0_13_27
*1015 FILLER_0_13_273
*1016 FILLER_0_13_279
*1017 FILLER_0_13_281
*1018 FILLER_0_13_293
*1019 FILLER_0_13_3
*1020 FILLER_0_13_305
*1021 FILLER_0_13_317
*1022 FILLER_0_13_329
*1023 FILLER_0_13_39
*1024 FILLER_0_13_51
*1025 FILLER_0_13_55
*1026 FILLER_0_13_57
*1027 FILLER_0_13_69
*1028 FILLER_0_13_81
*1029 FILLER_0_13_89
*1030 FILLER_0_14_117
*1031 FILLER_0_14_136
*1032 FILLER_0_14_141
*1033 FILLER_0_14_15
*1034 FILLER_0_14_163
*1035 FILLER_0_14_188
*1036 FILLER_0_14_197
*1037 FILLER_0_14_209
*1038 FILLER_0_14_215
*1039 FILLER_0_14_222
*1040 FILLER_0_14_234
*1041 FILLER_0_14_246
*1042 FILLER_0_14_253
*1043 FILLER_0_14_265
*1044 FILLER_0_14_27
*1045 FILLER_0_14_277
*1046 FILLER_0_14_289
*1047 FILLER_0_14_29
*1048 FILLER_0_14_3
*1049 FILLER_0_14_301
*1050 FILLER_0_14_307
*1051 FILLER_0_14_309
*1052 FILLER_0_14_321
*1053 FILLER_0_14_333
*1054 FILLER_0_14_41
*1055 FILLER_0_14_53
*1056 FILLER_0_14_65
*1057 FILLER_0_14_77
*1058 FILLER_0_14_83
*1059 FILLER_0_14_85
*1060 FILLER_0_14_89
*1061 FILLER_0_15_117
*1062 FILLER_0_15_146
*1063 FILLER_0_15_15
*1064 FILLER_0_15_154
*1065 FILLER_0_15_169
*1066 FILLER_0_15_177
*1067 FILLER_0_15_195
*1068 FILLER_0_15_207
*1069 FILLER_0_15_219
*1070 FILLER_0_15_223
*1071 FILLER_0_15_225
*1072 FILLER_0_15_237
*1073 FILLER_0_15_249
*1074 FILLER_0_15_261
*1075 FILLER_0_15_27
*1076 FILLER_0_15_273
*1077 FILLER_0_15_279
*1078 FILLER_0_15_281
*1079 FILLER_0_15_293
*1080 FILLER_0_15_3
*1081 FILLER_0_15_305
*1082 FILLER_0_15_317
*1083 FILLER_0_15_329
*1084 FILLER_0_15_39
*1085 FILLER_0_15_51
*1086 FILLER_0_15_55
*1087 FILLER_0_15_57
*1088 FILLER_0_15_69
*1089 FILLER_0_15_81
*1090 FILLER_0_15_89
*1091 FILLER_0_16_117
*1092 FILLER_0_16_136
*1093 FILLER_0_16_141
*1094 FILLER_0_16_15
*1095 FILLER_0_16_166
*1096 FILLER_0_16_194
*1097 FILLER_0_16_197
*1098 FILLER_0_16_209
*1099 FILLER_0_16_221
*1100 FILLER_0_16_233
*1101 FILLER_0_16_245
*1102 FILLER_0_16_251
*1103 FILLER_0_16_253
*1104 FILLER_0_16_265
*1105 FILLER_0_16_27
*1106 FILLER_0_16_277
*1107 FILLER_0_16_289
*1108 FILLER_0_16_29
*1109 FILLER_0_16_3
*1110 FILLER_0_16_301
*1111 FILLER_0_16_307
*1112 FILLER_0_16_309
*1113 FILLER_0_16_321
*1114 FILLER_0_16_333
*1115 FILLER_0_16_41
*1116 FILLER_0_16_53
*1117 FILLER_0_16_65
*1118 FILLER_0_16_77
*1119 FILLER_0_16_83
*1120 FILLER_0_16_85
*1121 FILLER_0_16_89
*1122 FILLER_0_17_117
*1123 FILLER_0_17_121
*1124 FILLER_0_17_15
*1125 FILLER_0_17_167
*1126 FILLER_0_17_192
*1127 FILLER_0_17_199
*1128 FILLER_0_17_211
*1129 FILLER_0_17_223
*1130 FILLER_0_17_225
*1131 FILLER_0_17_237
*1132 FILLER_0_17_249
*1133 FILLER_0_17_261
*1134 FILLER_0_17_27
*1135 FILLER_0_17_273
*1136 FILLER_0_17_279
*1137 FILLER_0_17_281
*1138 FILLER_0_17_293
*1139 FILLER_0_17_3
*1140 FILLER_0_17_305
*1141 FILLER_0_17_317
*1142 FILLER_0_17_329
*1143 FILLER_0_17_39
*1144 FILLER_0_17_51
*1145 FILLER_0_17_55
*1146 FILLER_0_17_57
*1147 FILLER_0_17_69
*1148 FILLER_0_17_81
*1149 FILLER_0_17_89
*1150 FILLER_0_18_117
*1151 FILLER_0_18_15
*1152 FILLER_0_18_154
*1153 FILLER_0_18_162
*1154 FILLER_0_18_170
*1155 FILLER_0_18_197
*1156 FILLER_0_18_209
*1157 FILLER_0_18_221
*1158 FILLER_0_18_233
*1159 FILLER_0_18_245
*1160 FILLER_0_18_251
*1161 FILLER_0_18_253
*1162 FILLER_0_18_265
*1163 FILLER_0_18_27
*1164 FILLER_0_18_277
*1165 FILLER_0_18_289
*1166 FILLER_0_18_29
*1167 FILLER_0_18_3
*1168 FILLER_0_18_301
*1169 FILLER_0_18_307
*1170 FILLER_0_18_309
*1171 FILLER_0_18_321
*1172 FILLER_0_18_333
*1173 FILLER_0_18_41
*1174 FILLER_0_18_53
*1175 FILLER_0_18_65
*1176 FILLER_0_18_77
*1177 FILLER_0_18_83
*1178 FILLER_0_18_85
*1179 FILLER_0_18_89
*1180 FILLER_0_19_117
*1181 FILLER_0_19_143
*1182 FILLER_0_19_15
*1183 FILLER_0_19_167
*1184 FILLER_0_19_175
*1185 FILLER_0_19_189
*1186 FILLER_0_19_201
*1187 FILLER_0_19_213
*1188 FILLER_0_19_221
*1189 FILLER_0_19_225
*1190 FILLER_0_19_237
*1191 FILLER_0_19_249
*1192 FILLER_0_19_261
*1193 FILLER_0_19_27
*1194 FILLER_0_19_273
*1195 FILLER_0_19_279
*1196 FILLER_0_19_281
*1197 FILLER_0_19_293
*1198 FILLER_0_19_3
*1199 FILLER_0_19_305
*1200 FILLER_0_19_317
*1201 FILLER_0_19_329
*1202 FILLER_0_19_39
*1203 FILLER_0_19_51
*1204 FILLER_0_19_55
*1205 FILLER_0_19_57
*1206 FILLER_0_19_69
*1207 FILLER_0_19_81
*1208 FILLER_0_19_89
*1209 FILLER_0_1_105
*1210 FILLER_0_1_111
*1211 FILLER_0_1_113
*1212 FILLER_0_1_125
*1213 FILLER_0_1_137
*1214 FILLER_0_1_149
*1215 FILLER_0_1_15
*1216 FILLER_0_1_161
*1217 FILLER_0_1_167
*1218 FILLER_0_1_169
*1219 FILLER_0_1_181
*1220 FILLER_0_1_193
*1221 FILLER_0_1_205
*1222 FILLER_0_1_217
*1223 FILLER_0_1_223
*1224 FILLER_0_1_225
*1225 FILLER_0_1_237
*1226 FILLER_0_1_249
*1227 FILLER_0_1_261
*1228 FILLER_0_1_27
*1229 FILLER_0_1_273
*1230 FILLER_0_1_279
*1231 FILLER_0_1_281
*1232 FILLER_0_1_293
*1233 FILLER_0_1_3
*1234 FILLER_0_1_305
*1235 FILLER_0_1_317
*1236 FILLER_0_1_329
*1237 FILLER_0_1_39
*1238 FILLER_0_1_51
*1239 FILLER_0_1_55
*1240 FILLER_0_1_57
*1241 FILLER_0_1_69
*1242 FILLER_0_1_81
*1243 FILLER_0_1_93
*1244 FILLER_0_20_117
*1245 FILLER_0_20_128
*1246 FILLER_0_20_15
*1247 FILLER_0_20_160
*1248 FILLER_0_20_197
*1249 FILLER_0_20_208
*1250 FILLER_0_20_218
*1251 FILLER_0_20_230
*1252 FILLER_0_20_242
*1253 FILLER_0_20_250
*1254 FILLER_0_20_253
*1255 FILLER_0_20_265
*1256 FILLER_0_20_27
*1257 FILLER_0_20_277
*1258 FILLER_0_20_289
*1259 FILLER_0_20_29
*1260 FILLER_0_20_3
*1261 FILLER_0_20_301
*1262 FILLER_0_20_307
*1263 FILLER_0_20_309
*1264 FILLER_0_20_321
*1265 FILLER_0_20_333
*1266 FILLER_0_20_41
*1267 FILLER_0_20_53
*1268 FILLER_0_20_65
*1269 FILLER_0_20_77
*1270 FILLER_0_20_83
*1271 FILLER_0_20_85
*1272 FILLER_0_20_89
*1273 FILLER_0_21_117
*1274 FILLER_0_21_15
*1275 FILLER_0_21_150
*1276 FILLER_0_21_159
*1277 FILLER_0_21_165
*1278 FILLER_0_21_176
*1279 FILLER_0_21_190
*1280 FILLER_0_21_196
*1281 FILLER_0_21_204
*1282 FILLER_0_21_225
*1283 FILLER_0_21_237
*1284 FILLER_0_21_249
*1285 FILLER_0_21_261
*1286 FILLER_0_21_27
*1287 FILLER_0_21_273
*1288 FILLER_0_21_279
*1289 FILLER_0_21_281
*1290 FILLER_0_21_293
*1291 FILLER_0_21_3
*1292 FILLER_0_21_305
*1293 FILLER_0_21_317
*1294 FILLER_0_21_329
*1295 FILLER_0_21_39
*1296 FILLER_0_21_51
*1297 FILLER_0_21_55
*1298 FILLER_0_21_57
*1299 FILLER_0_21_69
*1300 FILLER_0_21_81
*1301 FILLER_0_21_89
*1302 FILLER_0_22_117
*1303 FILLER_0_22_148
*1304 FILLER_0_22_15
*1305 FILLER_0_22_157
*1306 FILLER_0_22_178
*1307 FILLER_0_22_197
*1308 FILLER_0_22_205
*1309 FILLER_0_22_217
*1310 FILLER_0_22_229
*1311 FILLER_0_22_241
*1312 FILLER_0_22_249
*1313 FILLER_0_22_253
*1314 FILLER_0_22_265
*1315 FILLER_0_22_27
*1316 FILLER_0_22_277
*1317 FILLER_0_22_289
*1318 FILLER_0_22_29
*1319 FILLER_0_22_3
*1320 FILLER_0_22_301
*1321 FILLER_0_22_307
*1322 FILLER_0_22_309
*1323 FILLER_0_22_321
*1324 FILLER_0_22_333
*1325 FILLER_0_22_41
*1326 FILLER_0_22_53
*1327 FILLER_0_22_65
*1328 FILLER_0_22_77
*1329 FILLER_0_22_83
*1330 FILLER_0_22_85
*1331 FILLER_0_22_89
*1332 FILLER_0_23_117
*1333 FILLER_0_23_15
*1334 FILLER_0_23_164
*1335 FILLER_0_23_169
*1336 FILLER_0_23_192
*1337 FILLER_0_23_204
*1338 FILLER_0_23_216
*1339 FILLER_0_23_222
*1340 FILLER_0_23_225
*1341 FILLER_0_23_237
*1342 FILLER_0_23_249
*1343 FILLER_0_23_261
*1344 FILLER_0_23_27
*1345 FILLER_0_23_273
*1346 FILLER_0_23_279
*1347 FILLER_0_23_281
*1348 FILLER_0_23_293
*1349 FILLER_0_23_3
*1350 FILLER_0_23_305
*1351 FILLER_0_23_317
*1352 FILLER_0_23_329
*1353 FILLER_0_23_39
*1354 FILLER_0_23_51
*1355 FILLER_0_23_55
*1356 FILLER_0_23_57
*1357 FILLER_0_23_69
*1358 FILLER_0_23_77
*1359 FILLER_0_24_117
*1360 FILLER_0_24_15
*1361 FILLER_0_24_168
*1362 FILLER_0_24_174
*1363 FILLER_0_24_188
*1364 FILLER_0_24_200
*1365 FILLER_0_24_212
*1366 FILLER_0_24_230
*1367 FILLER_0_24_242
*1368 FILLER_0_24_250
*1369 FILLER_0_24_253
*1370 FILLER_0_24_265
*1371 FILLER_0_24_27
*1372 FILLER_0_24_277
*1373 FILLER_0_24_289
*1374 FILLER_0_24_29
*1375 FILLER_0_24_3
*1376 FILLER_0_24_301
*1377 FILLER_0_24_307
*1378 FILLER_0_24_309
*1379 FILLER_0_24_321
*1380 FILLER_0_24_333
*1381 FILLER_0_24_41
*1382 FILLER_0_24_53
*1383 FILLER_0_24_65
*1384 FILLER_0_24_77
*1385 FILLER_0_24_83
*1386 FILLER_0_24_85
*1387 FILLER_0_24_89
*1388 FILLER_0_25_117
*1389 FILLER_0_25_123
*1390 FILLER_0_25_15
*1391 FILLER_0_25_156
*1392 FILLER_0_25_169
*1393 FILLER_0_25_178
*1394 FILLER_0_25_210
*1395 FILLER_0_25_222
*1396 FILLER_0_25_231
*1397 FILLER_0_25_243
*1398 FILLER_0_25_255
*1399 FILLER_0_25_267
*1400 FILLER_0_25_27
*1401 FILLER_0_25_279
*1402 FILLER_0_25_281
*1403 FILLER_0_25_293
*1404 FILLER_0_25_3
*1405 FILLER_0_25_305
*1406 FILLER_0_25_317
*1407 FILLER_0_25_329
*1408 FILLER_0_25_39
*1409 FILLER_0_25_51
*1410 FILLER_0_25_55
*1411 FILLER_0_25_57
*1412 FILLER_0_25_69
*1413 FILLER_0_25_81
*1414 FILLER_0_25_89
*1415 FILLER_0_26_121
*1416 FILLER_0_26_130
*1417 FILLER_0_26_139
*1418 FILLER_0_26_15
*1419 FILLER_0_26_157
*1420 FILLER_0_26_190
*1421 FILLER_0_26_197
*1422 FILLER_0_26_206
*1423 FILLER_0_26_210
*1424 FILLER_0_26_214
*1425 FILLER_0_26_223
*1426 FILLER_0_26_235
*1427 FILLER_0_26_247
*1428 FILLER_0_26_251
*1429 FILLER_0_26_253
*1430 FILLER_0_26_265
*1431 FILLER_0_26_27
*1432 FILLER_0_26_277
*1433 FILLER_0_26_289
*1434 FILLER_0_26_29
*1435 FILLER_0_26_3
*1436 FILLER_0_26_301
*1437 FILLER_0_26_307
*1438 FILLER_0_26_309
*1439 FILLER_0_26_321
*1440 FILLER_0_26_333
*1441 FILLER_0_26_41
*1442 FILLER_0_26_53
*1443 FILLER_0_26_65
*1444 FILLER_0_26_77
*1445 FILLER_0_26_83
*1446 FILLER_0_26_85
*1447 FILLER_0_26_89
*1448 FILLER_0_27_117
*1449 FILLER_0_27_15
*1450 FILLER_0_27_167
*1451 FILLER_0_27_169
*1452 FILLER_0_27_178
*1453 FILLER_0_27_213
*1454 FILLER_0_27_223
*1455 FILLER_0_27_231
*1456 FILLER_0_27_243
*1457 FILLER_0_27_255
*1458 FILLER_0_27_267
*1459 FILLER_0_27_27
*1460 FILLER_0_27_279
*1461 FILLER_0_27_281
*1462 FILLER_0_27_293
*1463 FILLER_0_27_3
*1464 FILLER_0_27_305
*1465 FILLER_0_27_317
*1466 FILLER_0_27_329
*1467 FILLER_0_27_39
*1468 FILLER_0_27_51
*1469 FILLER_0_27_55
*1470 FILLER_0_27_57
*1471 FILLER_0_27_69
*1472 FILLER_0_27_77
*1473 FILLER_0_28_117
*1474 FILLER_0_28_139
*1475 FILLER_0_28_15
*1476 FILLER_0_28_185
*1477 FILLER_0_28_197
*1478 FILLER_0_28_209
*1479 FILLER_0_28_215
*1480 FILLER_0_28_221
*1481 FILLER_0_28_233
*1482 FILLER_0_28_245
*1483 FILLER_0_28_251
*1484 FILLER_0_28_253
*1485 FILLER_0_28_265
*1486 FILLER_0_28_27
*1487 FILLER_0_28_277
*1488 FILLER_0_28_289
*1489 FILLER_0_28_29
*1490 FILLER_0_28_3
*1491 FILLER_0_28_301
*1492 FILLER_0_28_307
*1493 FILLER_0_28_309
*1494 FILLER_0_28_321
*1495 FILLER_0_28_333
*1496 FILLER_0_28_41
*1497 FILLER_0_28_53
*1498 FILLER_0_28_65
*1499 FILLER_0_28_77
*1500 FILLER_0_28_85
*1501 FILLER_0_28_89
*1502 FILLER_0_29_117
*1503 FILLER_0_29_131
*1504 FILLER_0_29_15
*1505 FILLER_0_29_151
*1506 FILLER_0_29_158