*SPEF "ieee 1481-1999"
*DESIGN "tt_um_S2P"
*DATE "11:11:11 Fri 11 11, 1111"
*VENDOR "OpenRCX"
*PROGRAM "Parallel Extraction"
*VERSION "1.0"
*DESIGN_FLOW "NAME_SCOPE LOCAL" "PIN_CAP NONE"
*DIVIDER /
*DELIMITER :
*BUS_DELIMITER []
*T_UNIT 1 NS
*C_UNIT 1 PF
*R_UNIT 1 OHM
*L_UNIT 1 HENRY

*NAME_MAP
*3 clk
*4 ena
*5 rst_n
*6 ui_in[0]
*7 ui_in[1]
*8 ui_in[2]
*9 ui_in[3]
*10 ui_in[4]
*11 ui_in[5]
*12 ui_in[6]
*13 ui_in[7]
*14 uio_in[0]
*15 uio_in[1]
*16 uio_in[2]
*17 uio_in[3]
*18 uio_in[4]
*19 uio_in[5]
*20 uio_in[6]
*21 uio_in[7]
*22 net20
*23 net21
*24 net22
*25 net23
*26 net4
*27 net5
*28 net6
*29 net7
*30 uio_out[0]
*31 uio_out[1]
*32 uio_out[2]
*33 uio_out[3]
*34 net8
*35 net9
*36 net10
*37 net11
*38 net12
*39 net13
*40 net14
*41 net15
*42 net16
*43 net17
*44 net18
*45 net19
*46 _00_
*47 _01_
*48 _02_
*49 _03_
*50 net1
*51 net2
*52 net3
*53 FILLER_0_0_109
*54 FILLER_0_0_113
*55 FILLER_0_0_125
*56 FILLER_0_0_137
*57 FILLER_0_0_141
*58 FILLER_0_0_15
*59 FILLER_0_0_153
*60 FILLER_0_0_165
*61 FILLER_0_0_169
*62 FILLER_0_0_181
*63 FILLER_0_0_193
*64 FILLER_0_0_197
*65 FILLER_0_0_209
*66 FILLER_0_0_221
*67 FILLER_0_0_225
*68 FILLER_0_0_237
*69 FILLER_0_0_249
*70 FILLER_0_0_253
*71 FILLER_0_0_265
*72 FILLER_0_0_27
*73 FILLER_0_0_277
*74 FILLER_0_0_281
*75 FILLER_0_0_29
*76 FILLER_0_0_293
*77 FILLER_0_0_3
*78 FILLER_0_0_305
*79 FILLER_0_0_309
*80 FILLER_0_0_321
*81 FILLER_0_0_333
*82 FILLER_0_0_41
*83 FILLER_0_0_53
*84 FILLER_0_0_57
*85 FILLER_0_0_69
*86 FILLER_0_0_81
*87 FILLER_0_0_85
*88 FILLER_0_0_97
*89 FILLER_0_10_109
*90 FILLER_0_10_121
*91 FILLER_0_10_133
*92 FILLER_0_10_139
*93 FILLER_0_10_141
*94 FILLER_0_10_15
*95 FILLER_0_10_153
*96 FILLER_0_10_165
*97 FILLER_0_10_177
*98 FILLER_0_10_189
*99 FILLER_0_10_195
*100 FILLER_0_10_197
*101 FILLER_0_10_209
*102 FILLER_0_10_221
*103 FILLER_0_10_233
*104 FILLER_0_10_245
*105 FILLER_0_10_251
*106 FILLER_0_10_253
*107 FILLER_0_10_265
*108 FILLER_0_10_27
*109 FILLER_0_10_277
*110 FILLER_0_10_289
*111 FILLER_0_10_29
*112 FILLER_0_10_3
*113 FILLER_0_10_301
*114 FILLER_0_10_307
*115 FILLER_0_10_309
*116 FILLER_0_10_321
*117 FILLER_0_10_333
*118 FILLER_0_10_41
*119 FILLER_0_10_53
*120 FILLER_0_10_65
*121 FILLER_0_10_77
*122 FILLER_0_10_83
*123 FILLER_0_10_85
*124 FILLER_0_10_97
*125 FILLER_0_11_105
*126 FILLER_0_11_111
*127 FILLER_0_11_113
*128 FILLER_0_11_125
*129 FILLER_0_11_137
*130 FILLER_0_11_149
*131 FILLER_0_11_15
*132 FILLER_0_11_161
*133 FILLER_0_11_167
*134 FILLER_0_11_169
*135 FILLER_0_11_181
*136 FILLER_0_11_193
*137 FILLER_0_11_205
*138 FILLER_0_11_217
*139 FILLER_0_11_223
*140 FILLER_0_11_225
*141 FILLER_0_11_237
*142 FILLER_0_11_249
*143 FILLER_0_11_261
*144 FILLER_0_11_27
*145 FILLER_0_11_273
*146 FILLER_0_11_279
*147 FILLER_0_11_281
*148 FILLER_0_11_293
*149 FILLER_0_11_3
*150 FILLER_0_11_305
*151 FILLER_0_11_317
*152 FILLER_0_11_329
*153 FILLER_0_11_39
*154 FILLER_0_11_51
*155 FILLER_0_11_55
*156 FILLER_0_11_57
*157 FILLER_0_11_69
*158 FILLER_0_11_81
*159 FILLER_0_11_93
*160 FILLER_0_12_109
*161 FILLER_0_12_121
*162 FILLER_0_12_133
*163 FILLER_0_12_139
*164 FILLER_0_12_141
*165 FILLER_0_12_15
*166 FILLER_0_12_153
*167 FILLER_0_12_165
*168 FILLER_0_12_177
*169 FILLER_0_12_189
*170 FILLER_0_12_195
*171 FILLER_0_12_197
*172 FILLER_0_12_209
*173 FILLER_0_12_221
*174 FILLER_0_12_233
*175 FILLER_0_12_245
*176 FILLER_0_12_251
*177 FILLER_0_12_253
*178 FILLER_0_12_265
*179 FILLER_0_12_27
*180 FILLER_0_12_277
*181 FILLER_0_12_289
*182 FILLER_0_12_29
*183 FILLER_0_12_3
*184 FILLER_0_12_301
*185 FILLER_0_12_307
*186 FILLER_0_12_309
*187 FILLER_0_12_321
*188 FILLER_0_12_333
*189 FILLER_0_12_41
*190 FILLER_0_12_53
*191 FILLER_0_12_65
*192 FILLER_0_12_77
*193 FILLER_0_12_83
*194 FILLER_0_12_85
*195 FILLER_0_12_97
*196 FILLER_0_13_105
*197 FILLER_0_13_111
*198 FILLER_0_13_113
*199 FILLER_0_13_125
*200 FILLER_0_13_137
*201 FILLER_0_13_149
*202 FILLER_0_13_15
*203 FILLER_0_13_161
*204 FILLER_0_13_167
*205 FILLER_0_13_169
*206 FILLER_0_13_181
*207 FILLER_0_13_193
*208 FILLER_0_13_205
*209 FILLER_0_13_217
*210 FILLER_0_13_223
*211 FILLER_0_13_225
*212 FILLER_0_13_237
*213 FILLER_0_13_249
*214 FILLER_0_13_261
*215 FILLER_0_13_27
*216 FILLER_0_13_273
*217 FILLER_0_13_279
*218 FILLER_0_13_281
*219 FILLER_0_13_293
*220 FILLER_0_13_3
*221 FILLER_0_13_305
*222 FILLER_0_13_317
*223 FILLER_0_13_329
*224 FILLER_0_13_39
*225 FILLER_0_13_51
*226 FILLER_0_13_55
*227 FILLER_0_13_57
*228 FILLER_0_13_69
*229 FILLER_0_13_81
*230 FILLER_0_13_93
*231 FILLER_0_14_109
*232 FILLER_0_14_121
*233 FILLER_0_14_133
*234 FILLER_0_14_139
*235 FILLER_0_14_141
*236 FILLER_0_14_15
*237 FILLER_0_14_153
*238 FILLER_0_14_165
*239 FILLER_0_14_177
*240 FILLER_0_14_189
*241 FILLER_0_14_195
*242 FILLER_0_14_197
*243 FILLER_0_14_209
*244 FILLER_0_14_221
*245 FILLER_0_14_233
*246 FILLER_0_14_245
*247 FILLER_0_14_251
*248 FILLER_0_14_253
*249 FILLER_0_14_265
*250 FILLER_0_14_27
*251 FILLER_0_14_277
*252 FILLER_0_14_289
*253 FILLER_0_14_29
*254 FILLER_0_14_3
*255 FILLER_0_14_301
*256 FILLER_0_14_307
*257 FILLER_0_14_309
*258 FILLER_0_14_321
*259 FILLER_0_14_333
*260 FILLER_0_14_41
*261 FILLER_0_14_53
*262 FILLER_0_14_65
*263 FILLER_0_14_77
*264 FILLER_0_14_83
*265 FILLER_0_14_85
*266 FILLER_0_14_97
*267 FILLER_0_15_105
*268 FILLER_0_15_111
*269 FILLER_0_15_113
*270 FILLER_0_15_125
*271 FILLER_0_15_137
*272 FILLER_0_15_149
*273 FILLER_0_15_15
*274 FILLER_0_15_161
*275 FILLER_0_15_167
*276 FILLER_0_15_169
*277 FILLER_0_15_181
*278 FILLER_0_15_193
*279 FILLER_0_15_205
*280 FILLER_0_15_217
*281 FILLER_0_15_223
*282 FILLER_0_15_225
*283 FILLER_0_15_237
*284 FILLER_0_15_249
*285 FILLER_0_15_261
*286 FILLER_0_15_27
*287 FILLER_0_15_273
*288 FILLER_0_15_279
*289 FILLER_0_15_281
*290 FILLER_0_15_293
*291 FILLER_0_15_3
*292 FILLER_0_15_305
*293 FILLER_0_15_317
*294 FILLER_0_15_329
*295 FILLER_0_15_39
*296 FILLER_0_15_51
*297 FILLER_0_15_55
*298 FILLER_0_15_57
*299 FILLER_0_15_69
*300 FILLER_0_15_81
*301 FILLER_0_15_93
*302 FILLER_0_16_109
*303 FILLER_0_16_121
*304 FILLER_0_16_133
*305 FILLER_0_16_139
*306 FILLER_0_16_141
*307 FILLER_0_16_15
*308 FILLER_0_16_153
*309 FILLER_0_16_165
*310 FILLER_0_16_177
*311 FILLER_0_16_189
*312 FILLER_0_16_195
*313 FILLER_0_16_197
*314 FILLER_0_16_209
*315 FILLER_0_16_221
*316 FILLER_0_16_233
*317 FILLER_0_16_245
*318 FILLER_0_16_251
*319 FILLER_0_16_253
*320 FILLER_0_16_265
*321 FILLER_0_16_27
*322 FILLER_0_16_277
*323 FILLER_0_16_289
*324 FILLER_0_16_29
*325 FILLER_0_16_3
*326 FILLER_0_16_301
*327 FILLER_0_16_307
*328 FILLER_0_16_309
*329 FILLER_0_16_321
*330 FILLER_0_16_333
*331 FILLER_0_16_41
*332 FILLER_0_16_53
*333 FILLER_0_16_65
*334 FILLER_0_16_77
*335 FILLER_0_16_83
*336 FILLER_0_16_85
*337 FILLER_0_16_97
*338 FILLER_0_17_105
*339 FILLER_0_17_111
*340 FILLER_0_17_113
*341 FILLER_0_17_125
*342 FILLER_0_17_137
*343 FILLER_0_17_149
*344 FILLER_0_17_15
*345 FILLER_0_17_161
*346 FILLER_0_17_167
*347 FILLER_0_17_169
*348 FILLER_0_17_181
*349 FILLER_0_17_193
*350 FILLER_0_17_205
*351 FILLER_0_17_217
*352 FILLER_0_17_223
*353 FILLER_0_17_225
*354 FILLER_0_17_237
*355 FILLER_0_17_249
*356 FILLER_0_17_261
*357 FILLER_0_17_27
*358 FILLER_0_17_273
*359 FILLER_0_17_279
*360 FILLER_0_17_281
*361 FILLER_0_17_293
*362 FILLER_0_17_3
*363 FILLER_0_17_305
*364 FILLER_0_17_317
*365 FILLER_0_17_329
*366 FILLER_0_17_39
*367 FILLER_0_17_51
*368 FILLER_0_17_55
*369 FILLER_0_17_57
*370 FILLER_0_17_69
*371 FILLER_0_17_81
*372 FILLER_0_17_93
*373 FILLER_0_18_109
*374 FILLER_0_18_121
*375 FILLER_0_18_133
*376 FILLER_0_18_139
*377 FILLER_0_18_141
*378 FILLER_0_18_15
*379 FILLER_0_18_153
*380 FILLER_0_18_165
*381 FILLER_0_18_177
*382 FILLER_0_18_189
*383 FILLER_0_18_195
*384 FILLER_0_18_197
*385 FILLER_0_18_209
*386 FILLER_0_18_221
*387 FILLER_0_18_233
*388 FILLER_0_18_245
*389 FILLER_0_18_251
*390 FILLER_0_18_253
*391 FILLER_0_18_265
*392 FILLER_0_18_27
*393 FILLER_0_18_277
*394 FILLER_0_18_289
*395 FILLER_0_18_29
*396 FILLER_0_18_3
*397 FILLER_0_18_301
*398 FILLER_0_18_307
*399 FILLER_0_18_309
*400 FILLER_0_18_321
*401 FILLER_0_18_333
*402 FILLER_0_18_41
*403 FILLER_0_18_53
*404 FILLER_0_18_65
*405 FILLER_0_18_77
*406 FILLER_0_18_83
*407 FILLER_0_18_85
*408 FILLER_0_18_97
*409 FILLER_0_19_105
*410 FILLER_0_19_111
*411 FILLER_0_19_113
*412 FILLER_0_19_125
*413 FILLER_0_19_137
*414 FILLER_0_19_149
*415 FILLER_0_19_15
*416 FILLER_0_19_161
*417 FILLER_0_19_167
*418 FILLER_0_19_169
*419 FILLER_0_19_181
*420 FILLER_0_19_193
*421 FILLER_0_19_205
*422 FILLER_0_19_217
*423 FILLER_0_19_223
*424 FILLER_0_19_225
*425 FILLER_0_19_237
*426 FILLER_0_19_249
*427 FILLER_0_19_261
*428 FILLER_0_19_27
*429 FILLER_0_19_273
*430 FILLER_0_19_279
*431 FILLER_0_19_281
*432 FILLER_0_19_293
*433 FILLER_0_19_3
*434 FILLER_0_19_305
*435 FILLER_0_19_317
*436 FILLER_0_19_329
*437 FILLER_0_19_39
*438 FILLER_0_19_51
*439 FILLER_0_19_55
*440 FILLER_0_19_57
*441 FILLER_0_19_69
*442 FILLER_0_19_81
*443 FILLER_0_19_93
*444 FILLER_0_1_105
*445 FILLER_0_1_111
*446 FILLER_0_1_113
*447 FILLER_0_1_125
*448 FILLER_0_1_137
*449 FILLER_0_1_149
*450 FILLER_0_1_15
*451 FILLER_0_1_161
*452 FILLER_0_1_167
*453 FILLER_0_1_169
*454 FILLER_0_1_181
*455 FILLER_0_1_193
*456 FILLER_0_1_205
*457 FILLER_0_1_217
*458 FILLER_0_1_223
*459 FILLER_0_1_225
*460 FILLER_0_1_237
*461 FILLER_0_1_249
*462 FILLER_0_1_261
*463 FILLER_0_1_27
*464 FILLER_0_1_273
*465 FILLER_0_1_279
*466 FILLER_0_1_281
*467 FILLER_0_1_293
*468 FILLER_0_1_3
*469 FILLER_0_1_305
*470 FILLER_0_1_317
*471 FILLER_0_1_329
*472 FILLER_0_1_39
*473 FILLER_0_1_51
*474 FILLER_0_1_55
*475 FILLER_0_1_57
*476 FILLER_0_1_69
*477 FILLER_0_1_81
*478 FILLER_0_1_93
*479 FILLER_0_20_109
*480 FILLER_0_20_121
*481 FILLER_0_20_133
*482 FILLER_0_20_139
*483 FILLER_0_20_141
*484 FILLER_0_20_15
*485 FILLER_0_20_153
*486 FILLER_0_20_165
*487 FILLER_0_20_177
*488 FILLER_0_20_189
*489 FILLER_0_20_195
*490 FILLER_0_20_197
*491 FILLER_0_20_209
*492 FILLER_0_20_221
*493 FILLER_0_20_233
*494 FILLER_0_20_245
*495 FILLER_0_20_251
*496 FILLER_0_20_253
*497 FILLER_0_20_265
*498 FILLER_0_20_27
*499 FILLER_0_20_277
*500 FILLER_0_20_289
*501 FILLER_0_20_29
*502 FILLER_0_20_3
*503 FILLER_0_20_301
*504 FILLER_0_20_307
*505 FILLER_0_20_309
*506 FILLER_0_20_321
*507 FILLER_0_20_333
*508 FILLER_0_20_41
*509 FILLER_0_20_53
*510 FILLER_0_20_65
*511 FILLER_0_20_77
*512 FILLER_0_20_83
*513 FILLER_0_20_85
*514 FILLER_0_20_97
*515 FILLER_0_21_105
*516 FILLER_0_21_111
*517 FILLER_0_21_113
*518 FILLER_0_21_125
*519 FILLER_0_21_137
*520 FILLER_0_21_149
*521 FILLER_0_21_15
*522 FILLER_0_21_161
*523 FILLER_0_21_167
*524 FILLER_0_21_169
*525 FILLER_0_21_181
*526 FILLER_0_21_193
*527 FILLER_0_21_205
*528 FILLER_0_21_217
*529 FILLER_0_21_223
*530 FILLER_0_21_225
*531 FILLER_0_21_237
*532 FILLER_0_21_249
*533 FILLER_0_21_261
*534 FILLER_0_21_27
*535 FILLER_0_21_273
*536 FILLER_0_21_279
*537 FILLER_0_21_281
*538 FILLER_0_21_293
*539 FILLER_0_21_3
*540 FILLER_0_21_305
*541 FILLER_0_21_317
*542 FILLER_0_21_329
*543 FILLER_0_21_39
*544 FILLER_0_21_51
*545 FILLER_0_21_55
*546 FILLER_0_21_57
*547 FILLER_0_21_69
*548 FILLER_0_21_81
*549 FILLER_0_21_93
*550 FILLER_0_22_109
*551 FILLER_0_22_121
*552 FILLER_0_22_133
*553 FILLER_0_22_139
*554 FILLER_0_22_141
*555 FILLER_0_22_15
*556 FILLER_0_22_153
*557 FILLER_0_22_165
*558 FILLER_0_22_177
*559 FILLER_0_22_189
*560 FILLER_0_22_195
*561 FILLER_0_22_197
*562 FILLER_0_22_209
*563 FILLER_0_22_221
*564 FILLER_0_22_233
*565 FILLER_0_22_245
*566 FILLER_0_22_251
*567 FILLER_0_22_253
*568 FILLER_0_22_265
*569 FILLER_0_22_27
*570 FILLER_0_22_277
*571 FILLER_0_22_289
*572 FILLER_0_22_29
*573 FILLER_0_22_3
*574 FILLER_0_22_301
*575 FILLER_0_22_307
*576 FILLER_0_22_309
*577 FILLER_0_22_321
*578 FILLER_0_22_333
*579 FILLER_0_22_41
*580 FILLER_0_22_53
*581 FILLER_0_22_65
*582 FILLER_0_22_77
*583 FILLER_0_22_83
*584 FILLER_0_22_85
*585 FILLER_0_22_97
*586 FILLER_0_23_105
*587 FILLER_0_23_111
*588 FILLER_0_23_113
*589 FILLER_0_23_125
*590 FILLER_0_23_137
*591 FILLER_0_23_149
*592 FILLER_0_23_15
*593 FILLER_0_23_161
*594 FILLER_0_23_167
*595 FILLER_0_23_169
*596 FILLER_0_23_181
*597 FILLER_0_23_193
*598 FILLER_0_23_205
*599 FILLER_0_23_217
*600 FILLER_0_23_223
*601 FILLER_0_23_225
*602 FILLER_0_23_237
*603 FILLER_0_23_249
*604 FILLER_0_23_261
*605 FILLER_0_23_27
*606 FILLER_0_23_273
*607 FILLER_0_23_279
*608 FILLER_0_23_281
*609 FILLER_0_23_293
*610 FILLER_0_23_3
*611 FILLER_0_23_305
*612 FILLER_0_23_317
*613 FILLER_0_23_329
*614 FILLER_0_23_39
*615 FILLER_0_23_51
*616 FILLER_0_23_55
*617 FILLER_0_23_57
*618 FILLER_0_23_69
*619 FILLER_0_23_81
*620 FILLER_0_23_93
*621 FILLER_0_24_109
*622 FILLER_0_24_121
*623 FILLER_0_24_133
*624 FILLER_0_24_139
*625 FILLER_0_24_141
*626 FILLER_0_24_15
*627 FILLER_0_24_153
*628 FILLER_0_24_165
*629 FILLER_0_24_177
*630 FILLER_0_24_189
*631 FILLER_0_24_195
*632 FILLER_0_24_197
*633 FILLER_0_24_209
*634 FILLER_0_24_221
*635 FILLER_0_24_233
*636 FILLER_0_24_245
*637 FILLER_0_24_251
*638 FILLER_0_24_253
*639 FILLER_0_24_265
*640 FILLER_0_24_27
*641 FILLER_0_24_277
*642 FILLER_0_24_289
*643 FILLER_0_24_29
*644 FILLER_0_24_3
*645 FILLER_0_24_301
*646 FILLER_0_24_307
*647 FILLER_0_24_309
*648 FILLER_0_24_321
*649 FILLER_0_24_333
*650 FILLER_0_24_41
*651 FILLER_0_24_53
*652 FILLER_0_24_65
*653 FILLER_0_24_77
*654 FILLER_0_24_83
*655 FILLER_0_24_85
*656 FILLER_0_24_97
*657 FILLER_0_25_105
*658 FILLER_0_25_111
*659 FILLER_0_25_113
*660 FILLER_0_25_125
*661 FILLER_0_25_137
*662 FILLER_0_25_149
*663 FILLER_0_25_15
*664 FILLER_0_25_161
*665 FILLER_0_25_167
*666 FILLER_0_25_169
*667 FILLER_0_25_181
*668 FILLER_0_25_193
*669 FILLER_0_25_205
*670 FILLER_0_25_217
*671 FILLER_0_25_223
*672 FILLER_0_25_225
*673 FILLER_0_25_237
*674 FILLER_0_25_249
*675 FILLER_0_25_261
*676 FILLER_0_25_27
*677 FILLER_0_25_273
*678 FILLER_0_25_279
*679 FILLER_0_25_281
*680 FILLER_0_25_293
*681 FILLER_0_25_3
*682 FILLER_0_25_305
*683 FILLER_0_25_317
*684 FILLER_0_25_329
*685 FILLER_0_25_39
*686 FILLER_0_25_51
*687 FILLER_0_25_55
*688 FILLER_0_25_57
*689 FILLER_0_25_69
*690 FILLER_0_25_81
*691 FILLER_0_25_93
*692 FILLER_0_26_109
*693 FILLER_0_26_121
*694 FILLER_0_26_133
*695 FILLER_0_26_139
*696 FILLER_0_26_141
*697 FILLER_0_26_15
*698 FILLER_0_26_153
*699 FILLER_0_26_165
*700 FILLER_0_26_177
*701 FILLER_0_26_189
*702 FILLER_0_26_195
*703 FILLER_0_26_197
*704 FILLER_0_26_209
*705 FILLER_0_26_221
*706 FILLER_0_26_233
*707 FILLER_0_26_245
*708 FILLER_0_26_251
*709 FILLER_0_26_253
*710 FILLER_0_26_265
*711 FILLER_0_26_27
*712 FILLER_0_26_277
*713 FILLER_0_26_289
*714 FILLER_0_26_29
*715 FILLER_0_26_3
*716 FILLER_0_26_301
*717 FILLER_0_26_307
*718 FILLER_0_26_309
*719 FILLER_0_26_321
*720 FILLER_0_26_333
*721 FILLER_0_26_41
*722 FILLER_0_26_53
*723 FILLER_0_26_65
*724 FILLER_0_26_77
*725 FILLER_0_26_83
*726 FILLER_0_26_85
*727 FILLER_0_26_97
*728 FILLER_0_27_105
*729 FILLER_0_27_111
*730 FILLER_0_27_113
*731 FILLER_0_27_125
*732 FILLER_0_27_137
*733 FILLER_0_27_149
*734 FILLER_0_27_15
*735 FILLER_0_27_161
*736 FILLER_0_27_167
*737 FILLER_0_27_169
*738 FILLER_0_27_181
*739 FILLER_0_27_193
*740 FILLER_0_27_205
*741 FILLER_0_27_217
*742 FILLER_0_27_223
*743 FILLER_0_27_225
*744 FILLER_0_27_237
*745 FILLER_0_27_249
*746 FILLER_0_27_261
*747 FILLER_0_27_27
*748 FILLER_0_27_273
*749 FILLER_0_27_279
*750 FILLER_0_27_281
*751 FILLER_0_27_293
*752 FILLER_0_27_3
*753 FILLER_0_27_305
*754 FILLER_0_27_317
*755 FILLER_0_27_329
*756 FILLER_0_27_39
*757 FILLER_0_27_51
*758 FILLER_0_27_55
*759 FILLER_0_27_57
*760 FILLER_0_27_69
*761 FILLER_0_27_81
*762 FILLER_0_27_93
*763 FILLER_0_28_109
*764 FILLER_0_28_121
*765 FILLER_0_28_133
*766 FILLER_0_28_139
*767 FILLER_0_28_141
*768 FILLER_0_28_15
*769 FILLER_0_28_153
*770 FILLER_0_28_165
*771 FILLER_0_28_177
*772 FILLER_0_28_189
*773 FILLER_0_28_195
*774 FILLER_0_28_197
*775 FILLER_0_28_209
*776 FILLER_0_28_221
*777 FILLER_0_28_233
*778 FILLER_0_28_245
*779 FILLER_0_28_251
*780 FILLER_0_28_253
*781 FILLER_0_28_265
*782 FILLER_0_28_27
*783 FILLER_0_28_277
*784 FILLER_0_28_289
*785 FILLER_0_28_29
*786 FILLER_0_28_3
*787 FILLER_0_28_301
*788 FILLER_0_28_307
*789 FILLER_0_28_309
*790 FILLER_0_28_321
*791 FILLER_0_28_333
*792 FILLER_0_28_41
*793 FILLER_0_28_53
*794 FILLER_0_28_65
*795 FILLER_0_28_77
*796 FILLER_0_28_83
*797 FILLER_0_28_85
*798 FILLER_0_28_97
*799 FILLER_0_29_105
*800 FILLER_0_29_111
*801 FILLER_0_29_113
*802 FILLER_0_29_125
*803 FILLER_0_29_137
*804 FILLER_0_29_149
*805 FILLER_0_29_15
*806 FILLER_0_29_161
*807 FILLER_0_29_167
*808 FILLER_0_29_169
*809 FILLER_0_29_181
*810 FILLER_0_29_193
*811 FILLER_0_29_205
*812 FILLER_0_29_217
*813 FILLER_0_29_223
*814 FILLER_0_29_225
*815 FILLER_0_29_237
*816 FILLER_0_29_249
*817 FILLER_0_29_261
*818 FILLER_0_29_27
*819 FILLER_0_29_273
*820 FILLER_0_29_279
*821 FILLER_0_29_281
*822 FILLER_0_29_293
*823 FILLER_0_29_3
*824 FILLER_0_29_305
*825 FILLER_0_29_317
*826 FILLER_0_29_329
*827 FILLER_0_29_39
*828 FILLER_0_29_51
*829 FILLER_0_29_55
*830 FILLER_0_29_57
*831 FILLER_0_29_69
*832 FILLER_0_29_81
*833 FILLER_0_29_93
*834 FILLER_0_2_109
*835 FILLER_0_2_121
*836 FILLER_0_2_133
*837 FILLER_0_2_139
*838 FILLER_0_2_141
*839 FILLER_0_2_15
*840 FILLER_0_2_153
*841 FILLER_0_2_165
*842 FILLER_0_2_177
*843 FILLER_0_2_189
*844 FILLER_0_2_195
*845 FILLER_0_2_197
*846 FILLER_0_2_209
*847 FILLER_0_2_221
*848 FILLER_0_2_233
*849 FILLER_0_2_245
*850 FILLER_0_2_251
*851 FILLER_0_2_253
*852 FILLER_0_2_265
*853 FILLER_0_2_27
*854 FILLER_0_2_277
*855 FILLER_0_2_289
*856 FILLER_0_2_29
*857 FILLER_0_2_3
*858 FILLER_0_2_301
*859 FILLER_0_2_307
*860 FILLER_0_2_309
*861 FILLER_0_2_321
*862 FILLER_0_2_333
*863 FILLER_0_2_41
*864 FILLER_0_2_53
*865 FILLER_0_2_65
*866 FILLER_0_2_77
*867 FILLER_0_2_83
*868 FILLER_0_2_85
*869 FILLER_0_2_97
*870 FILLER_0_30_109
*871 FILLER_0_30_121
*872 FILLER_0_30_133
*873 FILLER_0_30_139
*874 FILLER_0_30_141
*875 FILLER_0_30_15
*876 FILLER_0_30_153
*877 FILLER_0_30_165
*878 FILLER_0_30_177
*879 FILLER_0_30_189
*880 FILLER_0_30_195
*881 FILLER_0_30_197
*882 FILLER_0_30_209
*883 FILLER_0_30_221
*884 FILLER_0_30_233
*885 FILLER_0_30_245
*886 FILLER_0_30_251
*887 FILLER_0_30_253
*888 FILLER_0_30_265
*889 FILLER_0_30_27
*890 FILLER_0_30_277
*891 FILLER_0_30_289
*892 FILLER_0_30_29
*893 FILLER_0_30_3
*894 FILLER_0_30_301
*895 FILLER_0_30_307
*896 FILLER_0_30_309
*897 FILLER_0_30_321
*898 FILLER_0_30_333
*899 FILLER_0_30_41
*900 FILLER_0_30_53
*901 FILLER_0_30_65
*902 FILLER_0_30_77
*903 FILLER_0_30_83
*904 FILLER_0_30_85
*905 FILLER_0_30_97
*906 FILLER_0_31_105
*907 FILLER_0_31_111
*908 FILLER_0_31_113
*909 FILLER_0_31_125
*910 FILLER_0_31_137
*911 FILLER_0_31_149
*912 FILLER_0_31_15
*913 FILLER_0_31_161
*914 FILLER_0_31_167
*915 FILLER_0_31_169
*916 FILLER_0_31_181
*917 FILLER_0_31_193
*918 FILLER_0_31_205
*919 FILLER_0_31_217
*920 FILLER_0_31_223
*921 FILLER_0_31_225
*922 FILLER_0_31_237
*923 FILLER_0_31_249
*924 FILLER_0_31_261
*925 FILLER_0_31_27
*926 FILLER_0_31_273
*927 FILLER_0_31_279
*928 FILLER_0_31_281
*929 FILLER_0_31_293
*930 FILLER_0_31_3
*931 FILLER_0_31_305
*932 FILLER_0_31_317
*933 FILLER_0_31_329
*934 FILLER_0_31_39
*935 FILLER_0_31_51
*936 FILLER_0_31_55
*937 FILLER_0_31_57
*938 FILLER_0_31_69
*939 FILLER_0_31_81
*940 FILLER_0_31_93
*941 FILLER_0_32_109
*942 FILLER_0_32_121
*943 FILLER_0_32_133
*944 FILLER_0_32_139
*945 FILLER_0_32_141
*946 FILLER_0_32_15
*947 FILLER_0_32_153
*948 FILLER_0_32_165
*949 FILLER_0_32_177
*950 FILLER_0_32_189
*951 FILLER_0_32_195
*952 FILLER_0_32_197
*953 FILLER_0_32_209
*954 FILLER_0_32_221
*955 FILLER_0_32_233
*956 FILLER_0_32_245
*957 FILLER_0_32_251
*958 FILLER_0_32_253
*959 FILLER_0_32_265
*960 FILLER_0_32_27
*961 FILLER_0_32_277
*962 FILLER_0_32_289
*963 FILLER_0_32_29
*964 FILLER_0_32_3
*965 FILLER_0_32_301
*966 FILLER_0_32_307
*967 FILLER_0_32_309
*968 FILLER_0_32_321
*969 FILLER_0_32_333
*970 FILLER_0_32_41
*971 FILLER_0_32_53
*972 FILLER_0_32_65
*973 FILLER_0_32_77
*974 FILLER_0_32_83
*975 FILLER_0_32_85
*976 FILLER_0_32_97
*977 FILLER_0_33_105
*978 FILLER_0_33_111
*979 FILLER_0_33_113
*980 FILLER_0_33_125
*981 FILLER_0_33_137
*982 FILLER_0_33_149
*983 FILLER_0_33_15
*984 FILLER_0_33_161
*985 FILLER_0_33_167
*986 FILLER_0_33_169
*987 FILLER_0_33_181
*988 FILLER_0_33_193
*989 FILLER_0_33_205
*990 FILLER_0_33_217
*991 FILLER_0_33_223
*992 FILLER_0_33_225
*993 FILLER_0_33_237
*994 FILLER_0_33_249
*995 FILLER_0_33_261
*996 FILLER_0_33_27
*997 FILLER_0_33_273
*998 FILLER_0_33_279
*999 FILLER_0_33_281
*1000 FILLER_0_33_293
*1001 FILLER_0_33_3
*1002 FILLER_0_33_305
*1003 FILLER_0_33_317
*1004 FILLER_0_33_329
*1005 FILLER_0_33_39
*1006 FILLER_0_33_51
*1007 FILLER_0_33_55
*1008 FILLER_0_33_57
*1009 FILLER_0_33_69
*1010 FILLER_0_33_81
*1011 FILLER_0_33_93
*1012 FILLER_0_34_109
*1013 FILLER_0_34_121
*1014 FILLER_0_34_133
*1015 FILLER_0_34_139
*1016 FILLER_0_34_141
*1017 FILLER_0_34_15
*1018 FILLER_0_34_153
*1019 FILLER_0_34_165
*1020 FILLER_0_34_177
*1021 FILLER_0_34_189
*1022 FILLER_0_34_195
*1023 FILLER_0_34_197
*1024 FILLER_0_34_209
*1025 FILLER_0_34_221
*1026 FILLER_0_34_233
*1027 FILLER_0_34_245
*1028 FILLER_0_34_251
*1029 FILLER_0_34_253
*1030 FILLER_0_34_265
*1031 FILLER_0_34_27
*1032 FILLER_0_34_277
*1033 FILLER_0_34_289
*1034 FILLER_0_34_29
*1035 FILLER_0_34_3
*1036 FILLER_0_34_301
*1037 FILLER_0_34_307
*1038 FILLER_0_34_309
*1039 FILLER_0_34_321
*1040 FILLER_0_34_333
*1041 FILLER_0_34_41
*1042 FILLER_0_34_53
*1043 FILLER_0_34_65
*1044 FILLER_0_34_77
*1045 FILLER_0_34_83
*1046 FILLER_0_34_85
*1047 FILLER_0_34_97
*1048 FILLER_0_35_105
*1049 FILLER_0_35_111
*1050 FILLER_0_35_113
*1051 FILLER_0_35_125
*1052 FILLER_0_35_137
*1053 FILLER_0_35_149
*1054 FILLER_0_35_15
*1055 FILLER_0_35_161
*1056 FILLER_0_35_167
*1057 FILLER_0_35_169
*1058 FILLER_0_35_181
*1059 FILLER_0_35_193
*1060 FILLER_0_35_205
*1061 FILLER_0_35_217
*1062 FILLER_0_35_223
*1063 FILLER_0_35_225
*1064 FILLER_0_35_237
*1065 FILLER_0_35_249
*1066 FILLER_0_35_261
*1067 FILLER_0_35_27
*1068 FILLER_0_35_273
*1069 FILLER_0_35_279
*1070 FILLER_0_35_281
*1071 FILLER_0_35_293
*1072 FILLER_0_35_3
*1073 FILLER_0_35_305
*1074 FILLER_0_35_317
*1075 FILLER_0_35_329
*1076 FILLER_0_35_39
*1077 FILLER_0_35_51
*1078 FILLER_0_35_55
*1079 FILLER_0_35_57
*1080 FILLER_0_35_69
*1081 FILLER_0_35_81
*1082 FILLER_0_35_93
*1083 FILLER_0_36_109
*1084 FILLER_0_36_118
*1085 FILLER_0_36_123
*1086 FILLER_0_36_135
*1087 FILLER_0_36_139
*1088 FILLER_0_36_141
*1089 FILLER_0_36_15
*1090 FILLER_0_36_153
*1091 FILLER_0_36_165
*1092 FILLER_0_36_177
*1093 FILLER_0_36_189
*1094 FILLER_0_36_195
*1095 FILLER_0_36_197
*1096 FILLER_0_36_209
*1097 FILLER_0_36_221
*1098 FILLER_0_36_233
*1099 FILLER_0_36_245
*1100 FILLER_0_36_251
*1101 FILLER_0_36_253
*1102 FILLER_0_36_265
*1103 FILLER_0_36_27
*1104 FILLER_0_36_277
*1105 FILLER_0_36_289
*1106 FILLER_0_36_29
*1107 FILLER_0_36_3
*1108 FILLER_0_36_301
*1109 FILLER_0_36_307
*1110 FILLER_0_36_309
*1111 FILLER_0_36_321
*1112 FILLER_0_36_333
*1113 FILLER_0_36_41
*1114 FILLER_0_36_53
*1115 FILLER_0_36_65
*1116 FILLER_0_36_77
*1117 FILLER_0_36_83
*1118 FILLER_0_36_85
*1119 FILLER_0_36_97
*1120 FILLER_0_37_105
*1121 FILLER_0_37_111
*1122 FILLER_0_37_139
*1123 FILLER_0_37_143
*1124 FILLER_0_37_15
*1125 FILLER_0_37_150
*1126 FILLER_0_37_154
*1127 FILLER_0_37_158
*1128 FILLER_0_37_166
*1129 FILLER_0_37_169
*1130 FILLER_0_37_181
*1131 FILLER_0_37_193
*1132 FILLER_0_37_199
*1133 FILLER_0_37_207
*1134 FILLER_0_37_219
*1135 FILLER_0_37_223
*1136 FILLER_0_37_225
*1137 FILLER_0_37_237
*1138 FILLER_0_37_249
*1139 FILLER_0_37_261
*1140 FILLER_0_37_27
*1141 FILLER_0_37_273
*1142 FILLER_0_37_279
*1143 FILLER_0_37_281
*1144 FILLER_0_37_293
*1145 FILLER_0_37_3
*1146 FILLER_0_37_305
*1147 FILLER_0_37_317
*1148 FILLER_0_37_329
*1149 FILLER_0_37_39
*1150 FILLER_0_37_51
*1151 FILLER_0_37_55
*1152 FILLER_0_37_57
*1153 FILLER_0_37_69
*1154 FILLER_0_37_81
*1155 FILLER_0_37_93
*1156 FILLER_0_38_10
*1157 FILLER_0_38_106
*1158 FILLER_0_38_136
*1159 FILLER_0_38_14
*1160 FILLER_0_38_167
*1161 FILLER_0_38_169
*1162 FILLER_0_38_174
*1163 FILLER_0_38_178
*1164 FILLER_0_38_18
*1165 FILLER_0_38_182
*1166 FILLER_0_38_186
*1167 FILLER_0_38_190
*1168 FILLER_0_38_22
*1169 FILLER_0_38_223
*1170 FILLER_0_38_225
*1171 FILLER_0_38_237
*1172 FILLER_0_38_249
*1173 FILLER_0_38_253
*1174 FILLER_0_38_265
*1175 FILLER_0_38_277
*1176 FILLER_0_38_281
*1177 FILLER_0_38_293
*1178 FILLER_0_38_305
*1179 FILLER_0_38_309
*1180 FILLER_0_38_32
*1181 FILLER_0_38_321
*1182 FILLER_0_38_333
*1183 FILLER_0_38_38
*1184 FILLER_0_38_42
*1185 FILLER_0_38_46
*1186 FILLER_0_38_50
*1187 FILLER_0_38_54
*1188 FILLER_0_38_57
*1189 FILLER_0_38_6
*1190 FILLER_0_38_62
*1191 FILLER_0_38_66
*1192 FILLER_0_38_70
*1193 FILLER_0_38_74
*1194 FILLER_0_38_78
*1195 FILLER_0_38_88
*1196 FILLER_0_38_94
*1197 FILLER_0_3_105
*1198 FILLER_0_3_111
*1199 FILLER_0_3_113
*1200 FILLER_0_3_125
*1201 FILLER_0_3_137
*1202 FILLER_0_3_149
*1203 FILLER_0_3_15
*1204 FILLER_0_3_161
*1205 FILLER_0_3_167
*1206 FILLER_0_3_169
*1207 FILLER_0_3_181
*1208 FILLER_0_3_193
*1209 FILLER_0_3_205
*1210 FILLER_0_3_217
*1211 FILLER_0_3_223
*1212 FILLER_0_3_225
*1213 FILLER_0_3_237
*1214 FILLER_0_3_249
*1215 FILLER_0_3_261
*1216 FILLER_0_3_27
*1217 FILLER_0_3_273
*1218 FILLER_0_3_279
*1219 FILLER_0_3_281
*1220 FILLER_0_3_293
*1221 FILLER_0_3_3
*1222 FILLER_0_3_305
*1223 FILLER_0_3_317
*1224 FILLER_0_3_329
*1225 FILLER_0_3_39
*1226 FILLER_0_3_51
*1227 FILLER_0_3_55
*1228 FILLER_0_3_57
*1229 FILLER_0_3_69
*1230 FILLER_0_3_81
*1231 FILLER_0_3_93
*1232 FILLER_0_4_109
*1233 FILLER_0_4_121
*1234 FILLER_0_4_133
*1235 FILLER_0_4_139
*1236 FILLER_0_4_141
*1237 FILLER_0_4_15
*1238 FILLER_0_4_153
*1239 FILLER_0_4_165
*1240 FILLER_0_4_177
*1241 FILLER_0_4_189
*1242 FILLER_0_4_195
*1243 FILLER_0_4_197
*1244 FILLER_0_4_209
*1245 FILLER_0_4_221
*1246 FILLER_0_4_233
*1247 FILLER_0_4_245
*1248 FILLER_0_4_251
*1249 FILLER_0_4_253
*1250 FILLER_0_4_265
*1251 FILLER_0_4_27
*1252 FILLER_0_4_277
*1253 FILLER_0_4_289
*1254 FILLER_0_4_29
*1255 FILLER_0_4_3
*1256 FILLER_0_4_301
*1257 FILLER_0_4_307
*1258 FILLER_0_4_309
*1259 FILLER_0_4_321
*1260 FILLER_0_4_333
*1261 FILLER_0_4_41
*1262 FILLER_0_4_53
*1263 FILLER_0_4_65
*1264 FILLER_0_4_77
*1265 FILLER_0_4_83
*1266 FILLER_0_4_85
*1267 FILLER_0_4_97
*1268 FILLER_0_5_105
*1269 FILLER_0_5_111
*1270 FILLER_0_5_113
*1271 FILLER_0_5_125
*1272 FILLER_0_5_137
*1273 FILLER_0_5_149
*1274 FILLER_0_5_15
*1275 FILLER_0_5_161
*1276 FILLER_0_5_167
*1277 FILLER_0_5_169
*1278 FILLER_0_5_181
*1279 FILLER_0_5_193
*1280 FILLER_0_5_205
*1281 FILLER_0_5_217
*1282 FILLER_0_5_223
*1283 FILLER_0_5_225
*1284 FILLER_0_5_237
*1285 FILLER_0_5_249
*1286 FILLER_0_5_261
*1287 FILLER_0_5_27
*1288 FILLER_0_5_273
*1289 FILLER_0_5_279
*1290 FILLER_0_5_281
*1291 FILLER_0_5_293
*1292 FILLER_0_5_3
*1293 FILLER_0_5_305
*1294 FILLER_0_5_317
*1295 FILLER_0_5_329
*1296 FILLER_0_5_39
*1297 FILLER_0_5_51
*1298 FILLER_0_5_55
*1299 FILLER_0_5_57
*1300 FILLER_0_5_69
*1301 FILLER_0_5_81
*1302 FILLER_0_5_93
*1303 FILLER_0_6_109
*1304 FILLER_0_6_121
*1305 FILLER_0_6_133
*1306 FILLER_0_6_139
*1307 FILLER_0_6_141
*1308 FILLER_0_6_15
*1309 FILLER_0_6_153
*1310 FILLER_0_6_165
*1311 FILLER_0_6_177
*1312 FILLER_0_6_189
*1313 FILLER_0_6_195
*1314 FILLER_0_6_197
*1315 FILLER_0_6_209
*1316 FILLER_0_6_221
*1317 FILLER_0_6_233
*1318 FILLER_0_6_245
*1319 FILLER_0_6_251
*1320 FILLER_0_6_253
*1321 FILLER_0_6_265
*1322 FILLER_0_6_27
*1323 FILLER_0_6_277
*1324 FILLER_0_6_289
*1325 FILLER_0_6_29
*1326 FILLER_0_6_3
*1327 FILLER_0_6_301
*1328 FILLER_0_6_307
*1329 FILLER_0_6_309
*1330 FILLER_0_6_321
*1331 FILLER_0_6_333
*1332 FILLER_0_6_41
*1333 FILLER_0_6_53
*1334 FILLER_0_6_65
*1335 FILLER_0_6_77
*1336 FILLER_0_6_83
*1337 FILLER_0_6_85
*1338 FILLER_0_6_97
*1339 FILLER_0_7_105
*1340 FILLER_0_7_111
*1341 FILLER_0_7_113
*1342 FILLER_0_7_125
*1343 FILLER_0_7_137
*1344 FILLER_0_7_149
*1345 FILLER_0_7_15
*1346 FILLER_0_7_161
*1347 FILLER_0_7_167
*1348 FILLER_0_7_169
*1349 FILLER_0_7_181
*1350 FILLER_0_7_193
*1351 FILLER_0_7_205
*1352 FILLER_0_7_217
*1353 FILLER_0_7_223
*1354 FILLER_0_7_225
*1355 FILLER_0_7_237
*1356 FILLER_0_7_249
*1357 FILLER_0_7_261
*1358 FILLER_0_7_27
*1359 FILLER_0_7_273
*1360 FILLER_0_7_279
*1361 FILLER_0_7_281
*1362 FILLER_0_7_293
*1363 FILLER_0_7_3
*1364 FILLER_0_7_305
*1365 FILLER_0_7_317
*1366 FILLER_0_7_329
*1367 FILLER_0_7_39
*1368 FILLER_0_7_51
*1369 FILLER_0_7_55
*1370 FILLER_0_7_57
*1371 FILLER_0_7_69
*1372 FILLER_0_7_81
*1373 FILLER_0_7_93
*1374 FILLER_0_8_109
*1375 FILLER_0_8_121
*1376 FILLER_0_8_133
*1377 FILLER_0_8_139
*1378 FILLER_0_8_141
*1379 FILLER_0_8_15
*1380 FILLER_0_8_153
*1381 FILLER_0_8_165
*1382 FILLER_0_8_177
*1383 FILLER_0_8_189
*1384 FILLER_0_8_195
*1385 FILLER_0_8_197
*1386 FILLER_0_8_209
*1387 FILLER_0_8_221
*1388 FILLER_0_8_233
*1389 FILLER_0_8_245
*1390 FILLER_0_8_251
*1391 FILLER_0_8_253
*1392 FILLER_0_8_265
*1393 FILLER_0_8_27
*1394 FILLER_0_8_277
*1395 FILLER_0_8_289
*1396 FILLER_0_8_29
*1397 FILLER_0_8_3
*1398 FILLER_0_8_301
*1399 FILLER_0_8_307
*1400 FILLER_0_8_309
*1401 FILLER_0_8_321
*1402 FILLER_0_8_333
*1403 FILLER_0_8_41
*1404 FILLER_0_8_53
*1405 FILLER_0_8_65
*1406 FILLER_0_8_77
*1407 FILLER_0_8_83
*1408 FILLER_0_8_85
*1409 FILLER_0_8_97
*1410 FILLER_0_9_105
*1411 FILLER_0_9_111
*1412 FILLER_0_9_113
*1413 FILLER_0_9_125
*1414 FILLER_0_9_137
*1415 FILLER_0_9_149
*1416 FILLER_0_9_15
*1417 FILLER_0_9_161
*1418 FILLER_0_9_167
*1419 FILLER_0_9_169
*1420 FILLER_0_9_181
*1421 FILLER_0_9_193
*1422 FILLER_0_9_205
*1423 FILLER_0_9_217
*1424 FILLER_0_9_223
*1425 FILLER_0_9_225
*1426 FILLER_0_9_237
*1427 FILLER_0_9_249
*1428 FILLER_0_9_261
*1429 FILLER_0_9_27
*1430 FILLER_0_9_273
*1431 FILLER_0_9_279
*1432 FILLER_0_9_281
*1433 FILLER_0_9_293
*1434 FILLER_0_9_3
*1435 FILLER_0_9_305
*1436 FILLER_0_9_317
*1437 FILLER_0_9_329
*1438 FILLER_0_9_39
*1439 FILLER_0_9_51
*1440 FILLER_0_9_55
*1441 FILLER_0_9_57
*1442 FILLER_0_9_69
*1443 FILLER_0_9_81
*1444 FILLER_0_9_93
*1445 PHY_EDGE_ROW_0_Left_39
*1446 PHY_EDGE_ROW_0_Right_0
*1447 PHY_EDGE_ROW_10_Left_49
*1448 PHY_EDGE_ROW_10_Right_10
*1449 PHY_EDGE_ROW_11_Left_50
*1450 PHY_EDGE_ROW_11_Right_11
*1451 PHY_EDGE_ROW_12_Left_51
*1452 PHY_EDGE_ROW_12_Right_12
*1453 PHY_EDGE_ROW_13_Left_52
*1454 PHY_EDGE_ROW_13_Right_13
*1455 PHY_EDGE_ROW_14_Left_53