*SPEF "ieee 1481-1999"
*DESIGN "tt_um_wokwi_395054564978002945"
*DATE "13:59:43 Saturday April 13, 2024"
*VENDOR "The OpenROAD Project"
*PROGRAM "OpenROAD"
*VERSION "0889970d1790a2617e69f253221b8bd7626e51dc"
*DESIGN_FLOW "NAME_SCOPE LOCAL" "PIN_CAP NONE"
*DIVIDER /
*DELIMITER :
*BUS_DELIMITER []
*T_UNIT 1 NS
*C_UNIT 1 PF
*R_UNIT 1 OHM
*L_UNIT 1 HENRY

*NAME_MAP
*3 clk
*4 ena
*5 rst_n
*6 ui_in[0]
*7 ui_in[1]
*8 ui_in[2]
*9 ui_in[3]
*10 ui_in[4]
*11 ui_in[5]
*12 ui_in[6]
*13 ui_in[7]
*14 uio_in[0]
*15 uio_in[1]
*16 uio_in[2]
*17 uio_in[3]
*18 uio_in[4]
*19 uio_in[5]
*20 uio_in[6]
*21 uio_in[7]
*22 net9
*23 net10
*24 net11
*25 net12
*26 net13
*27 net14
*28 net15
*29 net16
*30 net17
*31 net18
*32 net19
*33 net20
*34 net21
*35 net22
*36 net23
*37 net24
*38 net25
*39 uo_out[1]
*40 uo_out[2]
*41 uo_out[3]
*42 uo_out[4]
*43 uo_out[5]
*44 uo_out[6]
*45 uo_out[7]
*46 _00_
*47 _01_
*48 clknet_0_clk
*49 clknet_1_0__leaf_clk
*50 clknet_1_1__leaf_clk
*51 flop2\.notq
*52 flop2\.q
*53 mux1\.out
*54 net1
*55 net2
*56 net3
*57 net4
*58 net5
*59 net6
*60 net7
*61 net8
*62 or1\.out
*63 xor1\.out
*64 FILLER_0_0_109
*65 FILLER_0_0_113
*66 FILLER_0_0_125
*67 FILLER_0_0_137
*68 FILLER_0_0_141
*69 FILLER_0_0_15
*70 FILLER_0_0_153
*71 FILLER_0_0_165
*72 FILLER_0_0_169
*73 FILLER_0_0_181
*74 FILLER_0_0_193
*75 FILLER_0_0_197
*76 FILLER_0_0_209
*77 FILLER_0_0_221
*78 FILLER_0_0_225
*79 FILLER_0_0_237
*80 FILLER_0_0_249
*81 FILLER_0_0_253
*82 FILLER_0_0_265
*83 FILLER_0_0_27
*84 FILLER_0_0_277
*85 FILLER_0_0_281
*86 FILLER_0_0_29
*87 FILLER_0_0_293
*88 FILLER_0_0_3
*89 FILLER_0_0_305
*90 FILLER_0_0_309
*91 FILLER_0_0_321
*92 FILLER_0_0_333
*93 FILLER_0_0_41
*94 FILLER_0_0_53
*95 FILLER_0_0_57
*96 FILLER_0_0_69
*97 FILLER_0_0_81
*98 FILLER_0_0_85
*99 FILLER_0_0_97
*100 FILLER_0_10_109
*101 FILLER_0_10_121
*102 FILLER_0_10_133
*103 FILLER_0_10_139
*104 FILLER_0_10_141
*105 FILLER_0_10_15
*106 FILLER_0_10_153
*107 FILLER_0_10_165
*108 FILLER_0_10_177
*109 FILLER_0_10_189
*110 FILLER_0_10_195
*111 FILLER_0_10_197
*112 FILLER_0_10_209
*113 FILLER_0_10_221
*114 FILLER_0_10_233
*115 FILLER_0_10_245
*116 FILLER_0_10_251
*117 FILLER_0_10_253
*118 FILLER_0_10_265
*119 FILLER_0_10_27
*120 FILLER_0_10_277
*121 FILLER_0_10_289
*122 FILLER_0_10_29
*123 FILLER_0_10_3
*124 FILLER_0_10_301
*125 FILLER_0_10_307
*126 FILLER_0_10_309
*127 FILLER_0_10_321
*128 FILLER_0_10_333
*129 FILLER_0_10_41
*130 FILLER_0_10_53
*131 FILLER_0_10_65
*132 FILLER_0_10_77
*133 FILLER_0_10_83
*134 FILLER_0_10_85
*135 FILLER_0_10_97
*136 FILLER_0_11_105
*137 FILLER_0_11_111
*138 FILLER_0_11_113
*139 FILLER_0_11_125
*140 FILLER_0_11_137
*141 FILLER_0_11_149
*142 FILLER_0_11_15
*143 FILLER_0_11_161
*144 FILLER_0_11_167
*145 FILLER_0_11_169
*146 FILLER_0_11_181
*147 FILLER_0_11_193
*148 FILLER_0_11_205
*149 FILLER_0_11_217
*150 FILLER_0_11_223
*151 FILLER_0_11_225
*152 FILLER_0_11_237
*153 FILLER_0_11_249
*154 FILLER_0_11_261
*155 FILLER_0_11_27
*156 FILLER_0_11_273
*157 FILLER_0_11_279
*158 FILLER_0_11_281
*159 FILLER_0_11_293
*160 FILLER_0_11_3
*161 FILLER_0_11_305
*162 FILLER_0_11_317
*163 FILLER_0_11_329
*164 FILLER_0_11_39
*165 FILLER_0_11_51
*166 FILLER_0_11_55
*167 FILLER_0_11_57
*168 FILLER_0_11_69
*169 FILLER_0_11_81
*170 FILLER_0_11_93
*171 FILLER_0_12_109
*172 FILLER_0_12_121
*173 FILLER_0_12_133
*174 FILLER_0_12_139
*175 FILLER_0_12_141
*176 FILLER_0_12_15
*177 FILLER_0_12_153
*178 FILLER_0_12_165
*179 FILLER_0_12_177
*180 FILLER_0_12_189
*181 FILLER_0_12_195
*182 FILLER_0_12_197
*183 FILLER_0_12_209
*184 FILLER_0_12_221
*185 FILLER_0_12_233
*186 FILLER_0_12_245
*187 FILLER_0_12_251
*188 FILLER_0_12_253
*189 FILLER_0_12_265
*190 FILLER_0_12_27
*191 FILLER_0_12_277
*192 FILLER_0_12_289
*193 FILLER_0_12_29
*194 FILLER_0_12_3
*195 FILLER_0_12_301
*196 FILLER_0_12_307
*197 FILLER_0_12_309
*198 FILLER_0_12_321
*199 FILLER_0_12_333
*200 FILLER_0_12_41
*201 FILLER_0_12_53
*202 FILLER_0_12_65
*203 FILLER_0_12_77
*204 FILLER_0_12_83
*205 FILLER_0_12_85
*206 FILLER_0_12_97
*207 FILLER_0_13_105
*208 FILLER_0_13_111
*209 FILLER_0_13_113
*210 FILLER_0_13_125
*211 FILLER_0_13_137
*212 FILLER_0_13_149
*213 FILLER_0_13_15
*214 FILLER_0_13_161
*215 FILLER_0_13_167
*216 FILLER_0_13_169
*217 FILLER_0_13_181
*218 FILLER_0_13_193
*219 FILLER_0_13_205
*220 FILLER_0_13_217
*221 FILLER_0_13_223
*222 FILLER_0_13_225
*223 FILLER_0_13_237
*224 FILLER_0_13_249
*225 FILLER_0_13_261
*226 FILLER_0_13_27
*227 FILLER_0_13_273
*228 FILLER_0_13_279
*229 FILLER_0_13_281
*230 FILLER_0_13_293
*231 FILLER_0_13_3
*232 FILLER_0_13_305
*233 FILLER_0_13_317
*234 FILLER_0_13_329
*235 FILLER_0_13_39
*236 FILLER_0_13_51
*237 FILLER_0_13_55
*238 FILLER_0_13_57
*239 FILLER_0_13_69
*240 FILLER_0_13_81
*241 FILLER_0_13_93
*242 FILLER_0_14_109
*243 FILLER_0_14_121
*244 FILLER_0_14_133
*245 FILLER_0_14_139
*246 FILLER_0_14_141
*247 FILLER_0_14_15
*248 FILLER_0_14_153
*249 FILLER_0_14_165
*250 FILLER_0_14_177
*251 FILLER_0_14_189
*252 FILLER_0_14_195
*253 FILLER_0_14_197
*254 FILLER_0_14_209
*255 FILLER_0_14_221
*256 FILLER_0_14_233
*257 FILLER_0_14_245
*258 FILLER_0_14_251
*259 FILLER_0_14_253
*260 FILLER_0_14_265
*261 FILLER_0_14_27
*262 FILLER_0_14_277
*263 FILLER_0_14_289
*264 FILLER_0_14_29
*265 FILLER_0_14_3
*266 FILLER_0_14_301
*267 FILLER_0_14_307
*268 FILLER_0_14_309
*269 FILLER_0_14_321
*270 FILLER_0_14_333
*271 FILLER_0_14_41
*272 FILLER_0_14_53
*273 FILLER_0_14_65
*274 FILLER_0_14_77
*275 FILLER_0_14_83
*276 FILLER_0_14_85
*277 FILLER_0_14_97
*278 FILLER_0_15_105
*279 FILLER_0_15_111
*280 FILLER_0_15_113
*281 FILLER_0_15_125
*282 FILLER_0_15_137
*283 FILLER_0_15_149
*284 FILLER_0_15_15
*285 FILLER_0_15_161
*286 FILLER_0_15_167
*287 FILLER_0_15_169
*288 FILLER_0_15_181
*289 FILLER_0_15_193
*290 FILLER_0_15_205
*291 FILLER_0_15_217
*292 FILLER_0_15_223
*293 FILLER_0_15_225
*294 FILLER_0_15_237
*295 FILLER_0_15_249
*296 FILLER_0_15_261
*297 FILLER_0_15_27
*298 FILLER_0_15_273
*299 FILLER_0_15_279
*300 FILLER_0_15_281
*301 FILLER_0_15_293
*302 FILLER_0_15_3
*303 FILLER_0_15_305
*304 FILLER_0_15_317
*305 FILLER_0_15_329
*306 FILLER_0_15_39
*307 FILLER_0_15_51
*308 FILLER_0_15_55
*309 FILLER_0_15_57
*310 FILLER_0_15_69
*311 FILLER_0_15_81
*312 FILLER_0_15_93
*313 FILLER_0_16_109
*314 FILLER_0_16_121
*315 FILLER_0_16_133
*316 FILLER_0_16_139
*317 FILLER_0_16_141
*318 FILLER_0_16_15
*319 FILLER_0_16_153
*320 FILLER_0_16_165
*321 FILLER_0_16_177
*322 FILLER_0_16_189
*323 FILLER_0_16_195
*324 FILLER_0_16_197
*325 FILLER_0_16_209
*326 FILLER_0_16_221
*327 FILLER_0_16_233
*328 FILLER_0_16_245
*329 FILLER_0_16_251
*330 FILLER_0_16_253
*331 FILLER_0_16_265
*332 FILLER_0_16_27
*333 FILLER_0_16_277
*334 FILLER_0_16_289
*335 FILLER_0_16_29
*336 FILLER_0_16_3
*337 FILLER_0_16_301
*338 FILLER_0_16_307
*339 FILLER_0_16_309
*340 FILLER_0_16_321
*341 FILLER_0_16_333
*342 FILLER_0_16_41
*343 FILLER_0_16_53
*344 FILLER_0_16_65
*345 FILLER_0_16_77
*346 FILLER_0_16_83
*347 FILLER_0_16_85
*348 FILLER_0_16_97
*349 FILLER_0_17_105
*350 FILLER_0_17_111
*351 FILLER_0_17_113
*352 FILLER_0_17_125
*353 FILLER_0_17_137
*354 FILLER_0_17_149
*355 FILLER_0_17_15
*356 FILLER_0_17_161
*357 FILLER_0_17_167
*358 FILLER_0_17_169
*359 FILLER_0_17_181
*360 FILLER_0_17_193
*361 FILLER_0_17_205
*362 FILLER_0_17_217
*363 FILLER_0_17_223
*364 FILLER_0_17_225
*365 FILLER_0_17_237
*366 FILLER_0_17_249
*367 FILLER_0_17_261
*368 FILLER_0_17_27
*369 FILLER_0_17_273
*370 FILLER_0_17_279
*371 FILLER_0_17_281
*372 FILLER_0_17_293
*373 FILLER_0_17_3
*374 FILLER_0_17_305
*375 FILLER_0_17_317
*376 FILLER_0_17_329
*377 FILLER_0_17_39
*378 FILLER_0_17_51
*379 FILLER_0_17_55
*380 FILLER_0_17_57
*381 FILLER_0_17_69
*382 FILLER_0_17_81
*383 FILLER_0_17_93
*384 FILLER_0_18_109
*385 FILLER_0_18_121
*386 FILLER_0_18_133
*387 FILLER_0_18_139
*388 FILLER_0_18_141
*389 FILLER_0_18_15
*390 FILLER_0_18_153
*391 FILLER_0_18_165
*392 FILLER_0_18_177
*393 FILLER_0_18_189
*394 FILLER_0_18_195
*395 FILLER_0_18_197
*396 FILLER_0_18_209
*397 FILLER_0_18_221
*398 FILLER_0_18_233
*399 FILLER_0_18_245
*400 FILLER_0_18_251
*401 FILLER_0_18_253
*402 FILLER_0_18_265
*403 FILLER_0_18_27
*404 FILLER_0_18_277
*405 FILLER_0_18_289
*406 FILLER_0_18_29
*407 FILLER_0_18_3
*408 FILLER_0_18_301
*409 FILLER_0_18_307
*410 FILLER_0_18_309
*411 FILLER_0_18_321
*412 FILLER_0_18_333
*413 FILLER_0_18_41
*414 FILLER_0_18_53
*415 FILLER_0_18_65
*416 FILLER_0_18_77
*417 FILLER_0_18_83
*418 FILLER_0_18_85
*419 FILLER_0_18_97
*420 FILLER_0_19_105
*421 FILLER_0_19_111
*422 FILLER_0_19_113
*423 FILLER_0_19_125
*424 FILLER_0_19_137
*425 FILLER_0_19_149
*426 FILLER_0_19_15
*427 FILLER_0_19_161
*428 FILLER_0_19_167
*429 FILLER_0_19_169
*430 FILLER_0_19_181
*431 FILLER_0_19_193
*432 FILLER_0_19_205
*433 FILLER_0_19_217
*434 FILLER_0_19_223
*435 FILLER_0_19_225
*436 FILLER_0_19_237
*437 FILLER_0_19_249
*438 FILLER_0_19_261
*439 FILLER_0_19_27
*440 FILLER_0_19_273
*441 FILLER_0_19_279
*442 FILLER_0_19_281
*443 FILLER_0_19_293
*444 FILLER_0_19_3
*445 FILLER_0_19_305
*446 FILLER_0_19_317
*447 FILLER_0_19_329
*448 FILLER_0_19_39
*449 FILLER_0_19_51
*450 FILLER_0_19_55
*451 FILLER_0_19_57
*452 FILLER_0_19_69
*453 FILLER_0_19_81
*454 FILLER_0_19_93
*455 FILLER_0_1_105
*456 FILLER_0_1_111
*457 FILLER_0_1_113
*458 FILLER_0_1_125
*459 FILLER_0_1_137
*460 FILLER_0_1_149
*461 FILLER_0_1_15
*462 FILLER_0_1_161
*463 FILLER_0_1_167
*464 FILLER_0_1_169
*465 FILLER_0_1_181
*466 FILLER_0_1_193
*467 FILLER_0_1_205
*468 FILLER_0_1_217
*469 FILLER_0_1_223
*470 FILLER_0_1_225
*471 FILLER_0_1_237
*472 FILLER_0_1_249
*473 FILLER_0_1_261
*474 FILLER_0_1_27
*475 FILLER_0_1_273
*476 FILLER_0_1_279
*477 FILLER_0_1_281
*478 FILLER_0_1_293
*479 FILLER_0_1_3
*480 FILLER_0_1_305
*481 FILLER_0_1_317
*482 FILLER_0_1_329
*483 FILLER_0_1_39
*484 FILLER_0_1_51
*485 FILLER_0_1_55
*486 FILLER_0_1_57
*487 FILLER_0_1_69
*488 FILLER_0_1_81
*489 FILLER_0_1_93
*490 FILLER_0_20_109
*491 FILLER_0_20_121
*492 FILLER_0_20_133
*493 FILLER_0_20_139
*494 FILLER_0_20_141
*495 FILLER_0_20_15
*496 FILLER_0_20_153
*497 FILLER_0_20_165
*498 FILLER_0_20_177
*499 FILLER_0_20_189
*500 FILLER_0_20_195
*501 FILLER_0_20_197
*502 FILLER_0_20_209
*503 FILLER_0_20_221
*504 FILLER_0_20_233
*505 FILLER_0_20_245
*506 FILLER_0_20_251
*507 FILLER_0_20_253
*508 FILLER_0_20_265
*509 FILLER_0_20_27
*510 FILLER_0_20_277
*511 FILLER_0_20_289
*512 FILLER_0_20_29
*513 FILLER_0_20_3
*514 FILLER_0_20_301
*515 FILLER_0_20_307
*516 FILLER_0_20_309
*517 FILLER_0_20_321
*518 FILLER_0_20_333
*519 FILLER_0_20_41
*520 FILLER_0_20_53
*521 FILLER_0_20_65
*522 FILLER_0_20_77
*523 FILLER_0_20_83
*524 FILLER_0_20_85
*525 FILLER_0_20_97
*526 FILLER_0_21_105
*527 FILLER_0_21_111
*528 FILLER_0_21_113
*529 FILLER_0_21_125
*530 FILLER_0_21_137
*531 FILLER_0_21_149
*532 FILLER_0_21_15
*533 FILLER_0_21_161
*534 FILLER_0_21_167
*535 FILLER_0_21_169
*536 FILLER_0_21_181
*537 FILLER_0_21_193
*538 FILLER_0_21_205
*539 FILLER_0_21_217
*540 FILLER_0_21_223
*541 FILLER_0_21_225
*542 FILLER_0_21_237
*543 FILLER_0_21_249
*544 FILLER_0_21_261
*545 FILLER_0_21_27
*546 FILLER_0_21_273
*547 FILLER_0_21_279
*548 FILLER_0_21_281
*549 FILLER_0_21_293
*550 FILLER_0_21_3
*551 FILLER_0_21_305
*552 FILLER_0_21_317
*553 FILLER_0_21_329
*554 FILLER_0_21_39
*555 FILLER_0_21_51
*556 FILLER_0_21_55
*557 FILLER_0_21_57
*558 FILLER_0_21_69
*559 FILLER_0_21_81
*560 FILLER_0_21_93
*561 FILLER_0_22_109
*562 FILLER_0_22_121
*563 FILLER_0_22_133
*564 FILLER_0_22_139
*565 FILLER_0_22_141
*566 FILLER_0_22_15
*567 FILLER_0_22_153
*568 FILLER_0_22_165
*569 FILLER_0_22_177
*570 FILLER_0_22_189
*571 FILLER_0_22_195
*572 FILLER_0_22_197
*573 FILLER_0_22_209
*574 FILLER_0_22_221
*575 FILLER_0_22_233
*576 FILLER_0_22_245
*577 FILLER_0_22_251
*578 FILLER_0_22_253
*579 FILLER_0_22_265
*580 FILLER_0_22_27
*581 FILLER_0_22_277
*582 FILLER_0_22_289
*583 FILLER_0_22_29
*584 FILLER_0_22_3
*585 FILLER_0_22_301
*586 FILLER_0_22_307
*587 FILLER_0_22_309
*588 FILLER_0_22_321
*589 FILLER_0_22_333
*590 FILLER_0_22_41
*591 FILLER_0_22_53
*592 FILLER_0_22_65
*593 FILLER_0_22_77
*594 FILLER_0_22_83
*595 FILLER_0_22_85
*596 FILLER_0_22_97
*597 FILLER_0_23_105
*598 FILLER_0_23_111
*599 FILLER_0_23_113
*600 FILLER_0_23_125
*601 FILLER_0_23_137
*602 FILLER_0_23_149
*603 FILLER_0_23_15
*604 FILLER_0_23_161
*605 FILLER_0_23_167
*606 FILLER_0_23_169
*607 FILLER_0_23_181
*608 FILLER_0_23_193
*609 FILLER_0_23_205
*610 FILLER_0_23_217
*611 FILLER_0_23_223
*612 FILLER_0_23_225
*613 FILLER_0_23_237
*614 FILLER_0_23_249
*615 FILLER_0_23_261
*616 FILLER_0_23_27
*617 FILLER_0_23_273
*618 FILLER_0_23_279
*619 FILLER_0_23_281
*620 FILLER_0_23_293
*621 FILLER_0_23_3
*622 FILLER_0_23_305
*623 FILLER_0_23_317
*624 FILLER_0_23_329
*625 FILLER_0_23_39
*626 FILLER_0_23_51
*627 FILLER_0_23_55
*628 FILLER_0_23_57
*629 FILLER_0_23_69
*630 FILLER_0_23_81
*631 FILLER_0_23_93
*632 FILLER_0_24_109
*633 FILLER_0_24_121
*634 FILLER_0_24_133
*635 FILLER_0_24_139
*636 FILLER_0_24_141
*637 FILLER_0_24_15
*638 FILLER_0_24_153
*639 FILLER_0_24_165
*640 FILLER_0_24_177
*641 FILLER_0_24_189
*642 FILLER_0_24_195
*643 FILLER_0_24_197
*644 FILLER_0_24_209
*645 FILLER_0_24_221
*646 FILLER_0_24_233
*647 FILLER_0_24_245
*648 FILLER_0_24_251
*649 FILLER_0_24_253
*650 FILLER_0_24_265
*651 FILLER_0_24_27
*652 FILLER_0_24_277
*653 FILLER_0_24_289
*654 FILLER_0_24_29
*655 FILLER_0_24_3
*656 FILLER_0_24_301
*657 FILLER_0_24_307
*658 FILLER_0_24_309
*659 FILLER_0_24_321
*660 FILLER_0_24_333
*661 FILLER_0_24_41
*662 FILLER_0_24_53
*663 FILLER_0_24_65
*664 FILLER_0_24_77
*665 FILLER_0_24_83
*666 FILLER_0_24_85
*667 FILLER_0_24_97
*668 FILLER_0_25_105
*669 FILLER_0_25_111
*670 FILLER_0_25_113
*671 FILLER_0_25_125
*672 FILLER_0_25_137
*673 FILLER_0_25_149
*674 FILLER_0_25_15
*675 FILLER_0_25_161
*676 FILLER_0_25_167
*677 FILLER_0_25_169
*678 FILLER_0_25_181
*679 FILLER_0_25_193
*680 FILLER_0_25_205
*681 FILLER_0_25_217
*682 FILLER_0_25_223
*683 FILLER_0_25_225
*684 FILLER_0_25_237
*685 FILLER_0_25_249
*686 FILLER_0_25_261
*687 FILLER_0_25_27
*688 FILLER_0_25_273
*689 FILLER_0_25_279
*690 FILLER_0_25_281
*691 FILLER_0_25_293
*692 FILLER_0_25_3
*693 FILLER_0_25_305
*694 FILLER_0_25_317
*695 FILLER_0_25_329
*696 FILLER_0_25_39
*697 FILLER_0_25_51
*698 FILLER_0_25_55
*699 FILLER_0_25_57
*700 FILLER_0_25_69
*701 FILLER_0_25_81
*702 FILLER_0_25_93
*703 FILLER_0_26_109
*704 FILLER_0_26_121
*705 FILLER_0_26_133
*706 FILLER_0_26_139
*707 FILLER_0_26_141
*708 FILLER_0_26_15
*709 FILLER_0_26_153
*710 FILLER_0_26_165
*711 FILLER_0_26_177
*712 FILLER_0_26_189
*713 FILLER_0_26_195
*714 FILLER_0_26_197
*715 FILLER_0_26_209
*716 FILLER_0_26_221
*717 FILLER_0_26_233
*718 FILLER_0_26_245
*719 FILLER_0_26_251
*720 FILLER_0_26_253
*721 FILLER_0_26_265
*722 FILLER_0_26_27
*723 FILLER_0_26_277
*724 FILLER_0_26_289
*725 FILLER_0_26_29
*726 FILLER_0_26_3
*727 FILLER_0_26_301
*728 FILLER_0_26_307
*729 FILLER_0_26_309
*730 FILLER_0_26_321
*731 FILLER_0_26_333
*732 FILLER_0_26_41
*733 FILLER_0_26_53
*734 FILLER_0_26_65
*735 FILLER_0_26_77
*736 FILLER_0_26_83
*737 FILLER_0_26_85
*738 FILLER_0_26_97
*739 FILLER_0_27_105
*740 FILLER_0_27_111
*741 FILLER_0_27_113
*742 FILLER_0_27_125
*743 FILLER_0_27_137
*744 FILLER_0_27_149
*745 FILLER_0_27_15
*746 FILLER_0_27_161
*747 FILLER_0_27_167
*748 FILLER_0_27_169
*749 FILLER_0_27_181
*750 FILLER_0_27_193
*751 FILLER_0_27_205
*752 FILLER_0_27_217
*753 FILLER_0_27_223
*754 FILLER_0_27_225
*755 FILLER_0_27_237
*756 FILLER_0_27_249
*757 FILLER_0_27_261
*758 FILLER_0_27_27
*759 FILLER_0_27_273
*760 FILLER_0_27_279
*761 FILLER_0_27_281
*762 FILLER_0_27_293
*763 FILLER_0_27_3
*764 FILLER_0_27_305
*765 FILLER_0_27_317
*766 FILLER_0_27_329
*767 FILLER_0_27_39
*768 FILLER_0_27_51
*769 FILLER_0_27_55
*770 FILLER_0_27_57
*771 FILLER_0_27_69
*772 FILLER_0_27_81
*773 FILLER_0_27_93
*774 FILLER_0_28_109
*775 FILLER_0_28_121
*776 FILLER_0_28_133
*777 FILLER_0_28_139
*778 FILLER_0_28_141
*779 FILLER_0_28_15
*780 FILLER_0_28_153
*781 FILLER_0_28_165
*782 FILLER_0_28_177
*783 FILLER_0_28_189
*784 FILLER_0_28_195
*785 FILLER_0_28_197
*786 FILLER_0_28_209
*787 FILLER_0_28_221
*788 FILLER_0_28_233
*789 FILLER_0_28_245
*790 FILLER_0_28_251
*791 FILLER_0_28_253
*792 FILLER_0_28_265
*793 FILLER_0_28_27
*794 FILLER_0_28_277
*795 FILLER_0_28_289
*796 FILLER_0_28_29
*797 FILLER_0_28_3
*798 FILLER_0_28_301
*799 FILLER_0_28_307
*800 FILLER_0_28_309
*801 FILLER_0_28_321
*802 FILLER_0_28_333
*803 FILLER_0_28_41
*804 FILLER_0_28_53
*805 FILLER_0_28_65
*806 FILLER_0_28_77
*807 FILLER_0_28_83
*808 FILLER_0_28_85
*809 FILLER_0_28_97
*810 FILLER_0_29_105
*811 FILLER_0_29_111
*812 FILLER_0_29_113
*813 FILLER_0_29_125
*814 FILLER_0_29_137
*815 FILLER_0_29_149
*816 FILLER_0_29_15
*817 FILLER_0_29_161
*818 FILLER_0_29_167
*819 FILLER_0_29_169
*820 FILLER_0_29_181
*821 FILLER_0_29_193
*822 FILLER_0_29_205
*823 FILLER_0_29_217
*824 FILLER_0_29_223
*825 FILLER_0_29_225
*826 FILLER_0_29_237
*827 FILLER_0_29_249
*828 FILLER_0_29_261
*829 FILLER_0_29_27
*830 FILLER_0_29_273
*831 FILLER_0_29_279
*832 FILLER_0_29_281
*833 FILLER_0_29_293
*834 FILLER_0_29_3
*835 FILLER_0_29_305
*836 FILLER_0_29_317
*837 FILLER_0_29_329
*838 FILLER_0_29_39
*839 FILLER_0_29_51
*840 FILLER_0_29_55
*841 FILLER_0_29_57
*842 FILLER_0_29_69
*843 FILLER_0_29_81
*844 FILLER_0_29_93
*845 FILLER_0_2_109
*846 FILLER_0_2_121
*847 FILLER_0_2_133
*848 FILLER_0_2_139
*849 FILLER_0_2_141
*850 FILLER_0_2_15
*851 FILLER_0_2_153
*852 FILLER_0_2_165
*853 FILLER_0_2_177
*854 FILLER_0_2_189
*855 FILLER_0_2_195
*856 FILLER_0_2_197
*857 FILLER_0_2_209
*858 FILLER_0_2_221
*859 FILLER_0_2_233
*860 FILLER_0_2_245
*861 FILLER_0_2_251
*862 FILLER_0_2_253
*863 FILLER_0_2_265
*864 FILLER_0_2_27
*865 FILLER_0_2_277
*866 FILLER_0_2_289
*867 FILLER_0_2_29
*868 FILLER_0_2_3
*869 FILLER_0_2_301
*870 FILLER_0_2_307
*871 FILLER_0_2_309
*872 FILLER_0_2_321
*873 FILLER_0_2_333
*874 FILLER_0_2_41
*875 FILLER_0_2_53
*876 FILLER_0_2_65
*877 FILLER_0_2_77
*878 FILLER_0_2_83
*879 FILLER_0_2_85
*880 FILLER_0_2_97
*881 FILLER_0_30_109
*882 FILLER_0_30_121
*883 FILLER_0_30_133
*884 FILLER_0_30_139
*885 FILLER_0_30_141
*886 FILLER_0_30_15
*887 FILLER_0_30_153
*888 FILLER_0_30_165
*889 FILLER_0_30_177
*890 FILLER_0_30_189
*891 FILLER_0_30_195
*892 FILLER_0_30_197
*893 FILLER_0_30_209
*894 FILLER_0_30_221
*895 FILLER_0_30_233
*896 FILLER_0_30_245
*897 FILLER_0_30_251
*898 FILLER_0_30_253
*899 FILLER_0_30_265
*900 FILLER_0_30_27
*901 FILLER_0_30_277
*902 FILLER_0_30_289
*903 FILLER_0_30_29
*904 FILLER_0_30_3
*905 FILLER_0_30_301
*906 FILLER_0_30_307
*907 FILLER_0_30_309
*908 FILLER_0_30_321
*909 FILLER_0_30_333
*910 FILLER_0_30_41
*911 FILLER_0_30_53
*912 FILLER_0_30_65
*913 FILLER_0_30_77
*914 FILLER_0_30_83
*915 FILLER_0_30_85
*916 FILLER_0_30_97
*917 FILLER_0_31_105
*918 FILLER_0_31_111
*919 FILLER_0_31_113
*920 FILLER_0_31_125
*921 FILLER_0_31_137
*922 FILLER_0_31_149
*923 FILLER_0_31_15
*924 FILLER_0_31_161
*925 FILLER_0_31_167
*926 FILLER_0_31_169
*927 FILLER_0_31_181
*928 FILLER_0_31_193
*929 FILLER_0_31_205
*930 FILLER_0_31_217
*931 FILLER_0_31_223
*932 FILLER_0_31_225
*933 FILLER_0_31_237
*934 FILLER_0_31_249
*935 FILLER_0_31_261
*936 FILLER_0_31_27
*937 FILLER_0_31_273
*938 FILLER_0_31_279
*939 FILLER_0_31_281
*940 FILLER_0_31_293
*941 FILLER_0_31_3
*942 FILLER_0_31_305
*943 FILLER_0_31_317
*944 FILLER_0_31_329
*945 FILLER_0_31_39
*946 FILLER_0_31_51
*947 FILLER_0_31_55
*948 FILLER_0_31_57
*949 FILLER_0_31_69
*950 FILLER_0_31_81
*951 FILLER_0_31_93
*952 FILLER_0_32_109
*953 FILLER_0_32_121
*954 FILLER_0_32_133
*955 FILLER_0_32_139
*956 FILLER_0_32_141
*957 FILLER_0_32_15
*958 FILLER_0_32_153
*959 FILLER_0_32_165
*960 FILLER_0_32_177
*961 FILLER_0_32_189
*962 FILLER_0_32_195
*963 FILLER_0_32_197
*964 FILLER_0_32_209
*965 FILLER_0_32_221
*966 FILLER_0_32_233
*967 FILLER_0_32_245
*968 FILLER_0_32_251
*969 FILLER_0_32_253
*970 FILLER_0_32_265
*971 FILLER_0_32_27
*972 FILLER_0_32_277
*973 FILLER_0_32_289
*974 FILLER_0_32_29
*975 FILLER_0_32_3
*976 FILLER_0_32_301
*977 FILLER_0_32_307
*978 FILLER_0_32_309
*979 FILLER_0_32_321
*980 FILLER_0_32_333
*981 FILLER_0_32_41
*982 FILLER_0_32_53
*983 FILLER_0_32_65
*984 FILLER_0_32_77
*985 FILLER_0_32_83
*986 FILLER_0_32_85
*987 FILLER_0_32_97
*988 FILLER_0_33_105
*989 FILLER_0_33_111
*990 FILLER_0_33_113
*991 FILLER_0_33_125
*992 FILLER_0_33_137
*993 FILLER_0_33_149
*994 FILLER_0_33_15
*995 FILLER_0_33_161
*996 FILLER_0_33_167
*997 FILLER_0_33_169
*998 FILLER_0_33_181
*999 FILLER_0_33_193
*1000 FILLER_0_33_205
*1001 FILLER_0_33_217
*1002 FILLER_0_33_223
*1003 FILLER_0_33_225
*1004 FILLER_0_33_237
*1005 FILLER_0_33_249
*1006 FILLER_0_33_261
*1007 FILLER_0_33_27
*1008 FILLER_0_33_273
*1009 FILLER_0_33_279
*1010 FILLER_0_33_281
*1011 FILLER_0_33_293
*1012 FILLER_0_33_3
*1013 FILLER_0_33_305
*1014 FILLER_0_33_317
*1015 FILLER_0_33_329
*1016 FILLER_0_33_39
*1017 FILLER_0_33_51
*1018 FILLER_0_33_55
*1019 FILLER_0_33_57
*1020 FILLER_0_33_69
*1021 FILLER_0_33_81
*1022 FILLER_0_33_93
*1023 FILLER_0_34_109
*1024 FILLER_0_34_121
*1025 FILLER_0_34_133
*1026 FILLER_0_34_139
*1027 FILLER_0_34_141
*1028 FILLER_0_34_15
*1029 FILLER_0_34_153
*1030 FILLER_0_34_165
*1031 FILLER_0_34_177
*1032 FILLER_0_34_189
*1033 FILLER_0_34_195
*1034 FILLER_0_34_197
*1035 FILLER_0_34_209
*1036 FILLER_0_34_221
*1037 FILLER_0_34_233
*1038 FILLER_0_34_245
*1039 FILLER_0_34_251
*1040 FILLER_0_34_253
*1041 FILLER_0_34_265
*1042 FILLER_0_34_27
*1043 FILLER_0_34_277
*1044 FILLER_0_34_289
*1045 FILLER_0_34_29
*1046 FILLER_0_34_3
*1047 FILLER_0_34_301
*1048 FILLER_0_34_307
*1049 FILLER_0_34_309
*1050 FILLER_0_34_321
*1051 FILLER_0_34_333
*1052 FILLER_0_34_41
*1053 FILLER_0_34_53
*1054 FILLER_0_34_65
*1055 FILLER_0_34_77
*1056 FILLER_0_34_83
*1057 FILLER_0_34_85
*1058 FILLER_0_34_97
*1059 FILLER_0_35_105
*1060 FILLER_0_35_111
*1061 FILLER_0_35_113
*1062 FILLER_0_35_125
*1063 FILLER_0_35_137
*1064 FILLER_0_35_149
*1065 FILLER_0_35_15
*1066 FILLER_0_35_161
*1067 FILLER_0_35_167
*1068 FILLER_0_35_169
*1069 FILLER_0_35_181
*1070 FILLER_0_35_193
*1071 FILLER_0_35_205
*1072 FILLER_0_35_217
*1073 FILLER_0_35_223
*1074 FILLER_0_35_225
*1075 FILLER_0_35_237
*1076 FILLER_0_35_249
*1077 FILLER_0_35_261
*1078 FILLER_0_35_27
*1079 FILLER_0_35_273
*1080 FILLER_0_35_279
*1081 FILLER_0_35_281
*1082 FILLER_0_35_293
*1083 FILLER_0_35_3
*1084 FILLER_0_35_305
*1085 FILLER_0_35_317
*1086 FILLER_0_35_329
*1087 FILLER_0_35_39
*1088 FILLER_0_35_51
*1089 FILLER_0_35_55
*1090 FILLER_0_35_57
*1091 FILLER_0_35_69
*1092 FILLER_0_35_81
*1093 FILLER_0_35_93
*1094 FILLER_0_36_109
*1095 FILLER_0_36_121
*1096 FILLER_0_36_133
*1097 FILLER_0_36_139
*1098 FILLER_0_36_141
*1099 FILLER_0_36_15
*1100 FILLER_0_36_153
*1101 FILLER_0_36_165
*1102 FILLER_0_36_176
*1103 FILLER_0_36_188
*1104 FILLER_0_36_197
*1105 FILLER_0_36_209
*1106 FILLER_0_36_221
*1107 FILLER_0_36_233
*1108 FILLER_0_36_245
*1109 FILLER_0_36_251
*1110 FILLER_0_36_253
*1111 FILLER_0_36_265
*1112 FILLER_0_36_27
*1113 FILLER_0_36_277
*1114 FILLER_0_36_289
*1115 FILLER_0_36_29
*1116 FILLER_0_36_3
*1117 FILLER_0_36_301
*1118 FILLER_0_36_307
*1119 FILLER_0_36_309
*1120 FILLER_0_36_321
*1121 FILLER_0_36_333
*1122 FILLER_0_36_41
*1123 FILLER_0_36_53
*1124 FILLER_0_36_65
*1125 FILLER_0_36_77
*1126 FILLER_0_36_83
*1127 FILLER_0_36_85
*1128 FILLER_0_36_97
*1129 FILLER_0_37_105
*1130 FILLER_0_37_111
*1131 FILLER_0_37_113
*1132 FILLER_0_37_125
*1133 FILLER_0_37_137
*1134 FILLER_0_37_149
*1135 FILLER_0_37_15
*1136 FILLER_0_37_161
*1137 FILLER_0_37_189
*1138 FILLER_0_37_201
*1139 FILLER_0_37_213
*1140 FILLER_0_37_221
*1141 FILLER_0_37_225
*1142 FILLER_0_37_237
*1143 FILLER_0_37_249
*1144 FILLER_0_37_257
*1145 FILLER_0_37_264
*1146 FILLER_0_37_27
*1147 FILLER_0_37_276
*1148 FILLER_0_37_281
*1149 FILLER_0_37_293
*1150 FILLER_0_37_3
*1151 FILLER_0_37_305
*1152 FILLER_0_37_317
*1153 FILLER_0_37_329
*1154 FILLER_0_37_39
*1155 FILLER_0_37_51
*1156 FILLER_0_37_55
*1157 FILLER_0_37_57
*1158 FILLER_0_37_69
*1159 FILLER_0_37_81
*1160 FILLER_0_37_93
*1161 FILLER_0_38_10
*1162 FILLER_0_38_102
*1163 FILLER_0_38_106
*1164 FILLER_0_38_110
*1165 FILLER_0_38_113
*1166 FILLER_0_38_118
*1167 FILLER_0_38_122
*1168 FILLER_0_38_126
*1169 FILLER_0_38_138
*1170 FILLER_0_38_14
*1171 FILLER_0_38_141
*1172 FILLER_0_38_169
*1173 FILLER_0_38_18
*1174 FILLER_0_38_197
*1175 FILLER_0_38_201
*1176 FILLER_0_38_22
*1177 FILLER_0_38_222
*1178 FILLER_0_38_225
*1179 FILLER_0_38_237
*1180 FILLER_0_38_245
*1181 FILLER_0_38_259
*1182 FILLER_0_38_274
*1183 FILLER_0_38_278
*1184 FILLER_0_38_295
*1185 FILLER_0_38_302
*1186 FILLER_0_38_32
*1187 FILLER_0_38_321
*1188 FILLER_0_38_326
*1189 FILLER_0_38_334
*1190 FILLER_0_38_38
*1191 FILLER_0_38_42
*1192 FILLER_0_38_46
*1193 FILLER_0_38_50
*1194 FILLER_0_38_54
*1195 FILLER_0_38_57
*1196 FILLER_0_38_6
*1197 FILLER_0_38_62
*1198 FILLER_0_38_66
*1199 FILLER_0_38_70
*1200 FILLER_0_38_74
*1201 FILLER_0_38_78
*1202 FILLER_0_38_88
*1203 FILLER_0_38_94
*1204 FILLER_0_38_98
*1205 FILLER_0_3_105
*1206 FILLER_0_3_111
*1207 FILLER_0_3_113
*1208 FILLER_0_3_125
*1209 FILLER_0_3_137
*1210 FILLER_0_3_149
*1211 FILLER_0_3_15
*1212 FILLER_0_3_161
*1213 FILLER_0_3_167
*1214 FILLER_0_3_169
*1215 FILLER_0_3_181
*1216 FILLER_0_3_193
*1217 FILLER_0_3_205
*1218 FILLER_0_3_217
*1219 FILLER_0_3_223
*1220 FILLER_0_3_225
*1221 FILLER_0_3_237
*1222 FILLER_0_3_249
*1223 FILLER_0_3_261
*1224 FILLER_0_3_27
*1225 FILLER_0_3_273
*1226 FILLER_0_3_279
*1227 FILLER_0_3_281
*1228 FILLER_0_3_293
*1229 FILLER_0_3_3
*1230 FILLER_0_3_305
*1231 FILLER_0_3_317
*1232 FILLER_0_3_329
*1233 FILLER_0_3_39
*1234 FILLER_0_3_51
*1235 FILLER_0_3_55
*1236 FILLER_0_3_57
*1237 FILLER_0_3_69
*1238 FILLER_0_3_81
*1239 FILLER_0_3_93
*1240 FILLER_0_4_109
*1241 FILLER_0_4_121
*1242 FILLER_0_4_133
*1243 FILLER_0_4_139
*1244 FILLER_0_4_141
*1245 FILLER_0_4_15
*1246 FILLER_0_4_153
*1247 FILLER_0_4_165
*1248 FILLER_0_4_177
*1249 FILLER_0_4_189
*1250 FILLER_0_4_195
*1251 FILLER_0_4_197
*1252 FILLER_0_4_209
*1253 FILLER_0_4_221
*1254 FILLER_0_4_233
*1255 FILLER_0_4_245
*1256 FILLER_0_4_251
*1257 FILLER_0_4_253
*1258 FILLER_0_4_265
*1259 FILLER_0_4_27
*1260 FILLER_0_4_277
*1261 FILLER_0_4_289
*1262 FILLER_0_4_29
*1263 FILLER_0_4_3
*1264 FILLER_0_4_301
*1265 FILLER_0_4_307
*1266 FILLER_0_4_309
*1267 FILLER_0_4_321
*1268 FILLER_0_4_333
*1269 FILLER_0_4_41
*1270 FILLER_0_4_53
*1271 FILLER_0_4_65
*1272 FILLER_0_4_77
*1273 FILLER_0_4_83
*1274 FILLER_0_4_85
*1275 FILLER_0_4_97
*1276 FILLER_0_5_105
*1277 FILLER_0_5_111
*1278 FILLER_0_5_113
*1279 FILLER_0_5_125
*1280 FILLER_0_5_137
*1281 FILLER_0_5_149
*1282 FILLER_0_5_15
*1283 FILLER_0_5_161
*1284 FILLER_0_5_167
*1285 FILLER_0_5_169
*1286 FILLER_0_5_181
*1287 FILLER_0_5_193
*1288 FILLER_0_5_205
*1289 FILLER_0_5_217
*1290 FILLER_0_5_223
*1291 FILLER_0_5_225
*1292 FILLER_0_5_237
*1293 FILLER_0_5_249
*1294 FILLER_0_5_261
*1295 FILLER_0_5_27
*1296 FILLER_0_5_273
*1297 FILLER_0_5_279
*1298 FILLER_0_5_281
*1299 FILLER_0_5_293
*1300 FILLER_0_5_3
*1301 FILLER_0_5_305
*1302 FILLER_0_5_317
*1303 FILLER_0_5_329
*1304 FILLER_0_5_39
*1305 FILLER_0_5_51
*1306 FILLER_0_5_55
*1307 FILLER_0_5_57
*1308 FILLER_0_5_69
*1309 FILLER_0_5_81
*1310 FILLER_0_5_93
*1311 FILLER_0_6_109
*1312 FILLER_0_6_121
*1313 FILLER_0_6_133
*1314 FILLER_0_6_139
*1315 FILLER_0_6_141
*1316 FILLER_0_6_15
*1317 FILLER_0_6_153
*1318 FILLER_0_6_165
*1319 FILLER_0_6_177
*1320 FILLER_0_6_189
*1321 FILLER_0_6_195
*1322 FILLER_0_6_197
*1323 FILLER_0_6_209
*1324 FILLER_0_6_221
*1325 FILLER_0_6_233
*1326 FILLER_0_6_245
*1327 FILLER_0_6_251
*1328 FILLER_0_6_253
*1329 FILLER_0_6_265
*1330 FILLER_0_6_27
*1331 FILLER_0_6_277
*1332 FILLER_0_6_289
*1333 FILLER_0_6_29
*1334 FILLER_0_6_3
*1335 FILLER_0_6_301
*1336 FILLER_0_6_307
*1337 FILLER_0_6_309
*1338 FILLER_0_6_321
*1339 FILLER_0_6_333
*1340 FILLER_0_6_41
*1341 FILLER_0_6_53
*1342 FILLER_0_6_65
*1343 FILLER_0_6_77
*1344 FILLER_0_6_83
*1345 FILLER_0_6_85
*1346 FILLER_0_6_97
*1347 FILLER_0_7_105
*1348 FILLER_0_7_111
*1349 FILLER_0_7_113
*1350 FILLER_0_7_125
*1351 FILLER_0_7_137
*1352 FILLER_0_7_149
*1353 FILLER_0_7_15
*1354 FILLER_0_7_161
*1355 FILLER_0_7_167
*1356 FILLER_0_7_169
*1357 FILLER_0_7_181
*1358 FILLER_0_7_193
*1359 FILLER_0_7_205
*1360 FILLER_0_7_217
*1361 FILLER_0_7_223
*1362 FILLER_0_7_225
*1363 FILLER_0_7_237
*1364 FILLER_0_7_249
*1365 FILLER_0_7_261
*1366 FILLER_0_7_27
*1367 FILLER_0_7_273
*1368 FILLER_0_7_279
*1369 FILLER_0_7_281
*1370 FILLER_0_7_293
*1371 FILLER_0_7_3
*1372 FILLER_0_7_305
*1373 FILLER_0_7_317
*1374 FILLER_0_7_329
*1375 FILLER_0_7_39
*1376 FILLER_0_7_51
*1377 FILLER_0_7_55
*1378 FILLER_0_7_57
*1379 FILLER_0_7_69
*1380 FILLER_0_7_81
*1381 FILLER_0_7_93
*1382 FILLER_0_8_109
*1383 FILLER_0_8_121
*1384 FILLER_0_8_133
*1385 FILLER_0_8_139
*1386 FILLER_0_8_141
*1387 FILLER_0_8_15
*1388 FILLER_0_8_153
*1389 FILLER_0_8_165
*1390 FILLER_0_8_177
*1391 FILLER_0_8_189
*1392 FILLER_0_8_195
*1393 FILLER_0_8_197
*1394 FILLER_0_8_209
*1395 FILLER_0_8_221
*1396 FILLER_0_8_233
*1397 FILLER_0_8_245
*1398 FILLER_0_8_251
*1399 FILLER_0_8_253
*1400 FILLER_0_8_265
*1401 FILLER_0_8_27
*1402 FILLER_0_8_277
*1403 FILLER_0_8_289
*1404 FILLER_0_8_29
*1405 FILLER_0_8_3
*1406 FILLER_0_8_301
*1407 FILLER_0_8_307
*1408 FILLER_0_8_309
*1409 FILLER_0_8_321
*1410 FILLER_0_8_333
*1411 FILLER_0_8_41
*1412 FILLER_0_8_53
*1413 FILLER_0_8_65
*1414 FILLER_0_8_77
*1415 FILLER_0_8_83
*1416 FILLER_0_8_85
*1417 FILLER_0_8_97
*1418 FILLER_0_9_105
*1419 FILLER_0_9_111
*1420 FILLER_0_9_113
*1421 FILLER_0_9_125
*1422 FILLER_0_9_137
*1423 FILLER_0_9_149
*1424 FILLER_0_9_15
*1425 FILLER_0_9_161
*1426 FILLER_0_9_167
*1427 FILLER_0_9_169
*1428 FILLER_0_9_181
*1429 FILLER_0_9_193
*1430 FILLER_0_9_205
*1431 FILLER_0_9_217
*1432 FILLER_0_9_223
*1433 FILLER_0_9_225
*1434 FILLER_0_9_237
*1435 FILLER_0_9_249
*1436 FILLER_0_9_261
*1437 FILLER_0_9_27
*1438 FILLER_0_9_273
*1439 FILLER_0_9_279
*1440 FILLER_0_9_281
*1441 FILLER_0_9_293
*1442 FILLER_0_9_3
*1443 FILLER_0_9_305
*1444 FILLER_0_9_317
*1445 FILLER_0_9_329
*1446 FILLER_0_9_39
*1447 FILLER_0_9_51
*1448 FILLER_0_9_55
*1449 FILLER_0_9_57
*1450 FILLER_0_9_69
*1451 FILLER_0_9_81
*1452 FILLER_0_9_93
*1453 PHY_EDGE_ROW_0_Left_39
*1454 PHY_EDGE_ROW_0_Right_0
*1455 PHY_EDGE_ROW_10_Left_49
*1456 PHY_EDGE_ROW_10_Right_10