*SPEF "ieee 1481-1999"
*DESIGN "tt_um_wokwi_395054564978002945"
*DATE "18:26:03 Tuesday April 16, 2024"
*VENDOR "The OpenROAD Project"
*PROGRAM "OpenROAD"
*VERSION "0889970d1790a2617e69f253221b8bd7626e51dc"
*DESIGN_FLOW "NAME_SCOPE LOCAL" "PIN_CAP NONE"
*DIVIDER /
*DELIMITER :
*BUS_DELIMITER []
*T_UNIT 1 NS
*C_UNIT 1 PF
*R_UNIT 1 OHM
*L_UNIT 1 HENRY

*NAME_MAP
*3 clk
*4 ena
*5 rst_n
*6 ui_in[0]
*7 ui_in[1]
*8 ui_in[2]
*9 ui_in[3]
*10 ui_in[4]
*11 ui_in[5]
*12 ui_in[6]
*13 ui_in[7]
*14 uio_in[0]
*15 uio_in[1]
*16 uio_in[2]
*17 uio_in[3]
*18 uio_in[4]
*19 uio_in[5]
*20 uio_in[6]
*21 uio_in[7]
*22 uio_oe[0]
*23 uio_oe[1]
*24 uio_oe[2]
*25 uio_oe[3]
*26 uio_oe[4]
*27 net3
*28 net4
*29 net5
*30 uio_out[0]
*31 uio_out[1]
*32 uio_out[2]
*33 uio_out[3]
*34 uio_out[4]
*35 net6
*36 net7
*37 net8
*38 net9
*39 net10
*40 net11
*41 net12
*42 net13
*43 net14
*44 net15
*45 net16
*46 _000_
*47 _001_
*48 _002_
*49 _003_
*50 _004_
*51 _005_
*52 _006_
*53 _007_
*54 _008_
*55 _009_
*56 _010_
*57 _011_
*58 _012_
*59 _013_
*60 _014_
*61 _015_
*62 _016_
*63 _017_
*64 _018_
*65 _019_
*66 _020_
*67 _021_
*68 _022_
*69 _023_
*70 _024_
*71 _025_
*72 _026_
*73 _027_
*74 _028_
*75 _029_
*76 _030_
*77 _031_
*78 _032_
*79 _033_
*80 _034_
*81 _035_
*82 _036_
*83 _037_
*84 _038_
*85 _039_
*86 _040_
*87 _041_
*88 _042_
*89 _043_
*90 _044_
*91 _045_
*92 _046_
*93 _047_
*94 _048_
*95 _049_
*96 _050_
*97 _051_
*98 and1\.a
*99 and1\.b
*100 and10\.a
*101 and10\.b
*102 and11\.b
*103 and12\.a
*104 and12\.b
*105 and13\.a
*106 and13\.b
*107 and14\.a
*108 and14\.b
*109 and15\.b
*110 and16\.b
*111 and17\.b
*112 and18\.b
*113 and19\.b
*114 and20\.b
*115 and21\.b
*116 and3\.b
*117 and4\.b
*118 and5\.b
*119 and6\.b
*120 and7\.b
*121 and8\.b
*122 and9\.b
*123 clknet_0_clk
*124 clknet_1_0__leaf_clk
*125 clknet_1_1__leaf_clk
*126 net1
*127 net17
*128 net18
*129 net19
*130 net2
*131 net20
*132 net21
*133 net22
*134 net23
*135 net24
*136 net25
*137 net26
*138 net27
*139 net28
*140 net29
*141 net30
*142 net31
*143 net32
*144 net33
*145 net34
*146 net35
*147 net36
*148 net37
*149 net38
*150 net39
*151 net40
*152 net41
*153 net42
*154 net43
*155 net44
*156 net45
*157 net46
*158 net47
*159 net48
*160 or1\.out
*161 or2\.out
*162 or3\.out
*163 or4\.out
*164 or5\.out
*165 FILLER_0_0_109
*166 FILLER_0_0_113
*167 FILLER_0_0_125
*168 FILLER_0_0_137
*169 FILLER_0_0_141
*170 FILLER_0_0_15
*171 FILLER_0_0_153
*172 FILLER_0_0_165
*173 FILLER_0_0_169
*174 FILLER_0_0_181
*175 FILLER_0_0_193
*176 FILLER_0_0_197
*177 FILLER_0_0_209
*178 FILLER_0_0_221
*179 FILLER_0_0_225
*180 FILLER_0_0_237
*181 FILLER_0_0_249
*182 FILLER_0_0_253
*183 FILLER_0_0_265
*184 FILLER_0_0_27
*185 FILLER_0_0_277
*186 FILLER_0_0_281
*187 FILLER_0_0_29
*188 FILLER_0_0_293
*189 FILLER_0_0_3
*190 FILLER_0_0_305
*191 FILLER_0_0_309
*192 FILLER_0_0_321
*193 FILLER_0_0_333
*194 FILLER_0_0_41
*195 FILLER_0_0_53
*196 FILLER_0_0_57
*197 FILLER_0_0_69
*198 FILLER_0_0_81
*199 FILLER_0_0_85
*200 FILLER_0_0_97
*201 FILLER_0_10_109
*202 FILLER_0_10_121
*203 FILLER_0_10_133
*204 FILLER_0_10_139
*205 FILLER_0_10_141
*206 FILLER_0_10_15
*207 FILLER_0_10_153
*208 FILLER_0_10_165
*209 FILLER_0_10_177
*210 FILLER_0_10_189
*211 FILLER_0_10_195
*212 FILLER_0_10_197
*213 FILLER_0_10_209
*214 FILLER_0_10_221
*215 FILLER_0_10_233
*216 FILLER_0_10_245
*217 FILLER_0_10_251
*218 FILLER_0_10_253
*219 FILLER_0_10_265
*220 FILLER_0_10_27
*221 FILLER_0_10_277
*222 FILLER_0_10_289
*223 FILLER_0_10_29
*224 FILLER_0_10_3
*225 FILLER_0_10_301
*226 FILLER_0_10_307
*227 FILLER_0_10_309
*228 FILLER_0_10_321
*229 FILLER_0_10_333
*230 FILLER_0_10_41
*231 FILLER_0_10_53
*232 FILLER_0_10_65
*233 FILLER_0_10_77
*234 FILLER_0_10_83
*235 FILLER_0_10_85
*236 FILLER_0_10_97
*237 FILLER_0_11_105
*238 FILLER_0_11_111
*239 FILLER_0_11_113
*240 FILLER_0_11_125
*241 FILLER_0_11_137
*242 FILLER_0_11_149
*243 FILLER_0_11_15
*244 FILLER_0_11_161
*245 FILLER_0_11_167
*246 FILLER_0_11_169
*247 FILLER_0_11_181
*248 FILLER_0_11_193
*249 FILLER_0_11_205
*250 FILLER_0_11_217
*251 FILLER_0_11_223
*252 FILLER_0_11_225
*253 FILLER_0_11_237
*254 FILLER_0_11_249
*255 FILLER_0_11_261
*256 FILLER_0_11_27
*257 FILLER_0_11_273
*258 FILLER_0_11_279
*259 FILLER_0_11_281
*260 FILLER_0_11_293
*261 FILLER_0_11_3
*262 FILLER_0_11_305
*263 FILLER_0_11_317
*264 FILLER_0_11_329
*265 FILLER_0_11_39
*266 FILLER_0_11_51
*267 FILLER_0_11_55
*268 FILLER_0_11_57
*269 FILLER_0_11_69
*270 FILLER_0_11_81
*271 FILLER_0_11_93
*272 FILLER_0_12_109
*273 FILLER_0_12_121
*274 FILLER_0_12_133
*275 FILLER_0_12_139
*276 FILLER_0_12_141
*277 FILLER_0_12_15
*278 FILLER_0_12_153
*279 FILLER_0_12_165
*280 FILLER_0_12_177
*281 FILLER_0_12_189
*282 FILLER_0_12_195
*283 FILLER_0_12_197
*284 FILLER_0_12_209
*285 FILLER_0_12_221
*286 FILLER_0_12_233
*287 FILLER_0_12_245
*288 FILLER_0_12_251
*289 FILLER_0_12_253
*290 FILLER_0_12_265
*291 FILLER_0_12_27
*292 FILLER_0_12_277
*293 FILLER_0_12_289
*294 FILLER_0_12_29
*295 FILLER_0_12_3
*296 FILLER_0_12_301
*297 FILLER_0_12_307
*298 FILLER_0_12_309
*299 FILLER_0_12_321
*300 FILLER_0_12_333
*301 FILLER_0_12_41
*302 FILLER_0_12_53
*303 FILLER_0_12_65
*304 FILLER_0_12_77
*305 FILLER_0_12_83
*306 FILLER_0_12_85
*307 FILLER_0_12_97
*308 FILLER_0_13_105
*309 FILLER_0_13_111
*310 FILLER_0_13_113
*311 FILLER_0_13_125
*312 FILLER_0_13_137
*313 FILLER_0_13_149
*314 FILLER_0_13_15
*315 FILLER_0_13_161
*316 FILLER_0_13_167
*317 FILLER_0_13_169
*318 FILLER_0_13_181
*319 FILLER_0_13_193
*320 FILLER_0_13_205
*321 FILLER_0_13_217
*322 FILLER_0_13_223
*323 FILLER_0_13_225
*324 FILLER_0_13_237
*325 FILLER_0_13_249
*326 FILLER_0_13_261
*327 FILLER_0_13_27
*328 FILLER_0_13_273
*329 FILLER_0_13_279
*330 FILLER_0_13_281
*331 FILLER_0_13_293
*332 FILLER_0_13_3
*333 FILLER_0_13_305
*334 FILLER_0_13_317
*335 FILLER_0_13_329
*336 FILLER_0_13_39
*337 FILLER_0_13_51
*338 FILLER_0_13_55
*339 FILLER_0_13_57
*340 FILLER_0_13_69
*341 FILLER_0_13_81
*342 FILLER_0_13_93
*343 FILLER_0_14_109
*344 FILLER_0_14_121
*345 FILLER_0_14_133
*346 FILLER_0_14_139
*347 FILLER_0_14_141
*348 FILLER_0_14_15
*349 FILLER_0_14_153
*350 FILLER_0_14_165
*351 FILLER_0_14_177
*352 FILLER_0_14_189
*353 FILLER_0_14_195
*354 FILLER_0_14_197
*355 FILLER_0_14_209
*356 FILLER_0_14_221
*357 FILLER_0_14_233
*358 FILLER_0_14_245
*359 FILLER_0_14_251
*360 FILLER_0_14_253
*361 FILLER_0_14_265
*362 FILLER_0_14_27
*363 FILLER_0_14_277
*364 FILLER_0_14_289
*365 FILLER_0_14_29
*366 FILLER_0_14_3
*367 FILLER_0_14_301
*368 FILLER_0_14_307
*369 FILLER_0_14_309
*370 FILLER_0_14_321
*371 FILLER_0_14_333
*372 FILLER_0_14_41
*373 FILLER_0_14_53
*374 FILLER_0_14_65
*375 FILLER_0_14_77
*376 FILLER_0_14_83
*377 FILLER_0_14_85
*378 FILLER_0_14_97
*379 FILLER_0_15_105
*380 FILLER_0_15_111
*381 FILLER_0_15_113
*382 FILLER_0_15_125
*383 FILLER_0_15_137
*384 FILLER_0_15_149
*385 FILLER_0_15_15
*386 FILLER_0_15_161
*387 FILLER_0_15_167
*388 FILLER_0_15_169
*389 FILLER_0_15_181
*390 FILLER_0_15_193
*391 FILLER_0_15_205
*392 FILLER_0_15_217
*393 FILLER_0_15_223
*394 FILLER_0_15_225
*395 FILLER_0_15_237
*396 FILLER_0_15_249
*397 FILLER_0_15_261
*398 FILLER_0_15_27
*399 FILLER_0_15_273
*400 FILLER_0_15_279
*401 FILLER_0_15_281
*402 FILLER_0_15_293
*403 FILLER_0_15_3
*404 FILLER_0_15_305
*405 FILLER_0_15_317
*406 FILLER_0_15_329
*407 FILLER_0_15_39
*408 FILLER_0_15_51
*409 FILLER_0_15_55
*410 FILLER_0_15_57
*411 FILLER_0_15_69
*412 FILLER_0_15_81
*413 FILLER_0_15_93
*414 FILLER_0_16_109
*415 FILLER_0_16_121
*416 FILLER_0_16_133
*417 FILLER_0_16_139
*418 FILLER_0_16_141
*419 FILLER_0_16_15
*420 FILLER_0_16_153
*421 FILLER_0_16_165
*422 FILLER_0_16_177
*423 FILLER_0_16_189
*424 FILLER_0_16_195
*425 FILLER_0_16_197
*426 FILLER_0_16_209
*427 FILLER_0_16_221
*428 FILLER_0_16_233
*429 FILLER_0_16_245
*430 FILLER_0_16_251
*431 FILLER_0_16_253
*432 FILLER_0_16_265
*433 FILLER_0_16_27
*434 FILLER_0_16_277
*435 FILLER_0_16_289
*436 FILLER_0_16_29
*437 FILLER_0_16_3
*438 FILLER_0_16_301
*439 FILLER_0_16_307
*440 FILLER_0_16_309
*441 FILLER_0_16_321
*442 FILLER_0_16_333
*443 FILLER_0_16_41
*444 FILLER_0_16_53
*445 FILLER_0_16_65
*446 FILLER_0_16_77
*447 FILLER_0_16_83
*448 FILLER_0_16_85
*449 FILLER_0_16_97
*450 FILLER_0_17_105
*451 FILLER_0_17_111
*452 FILLER_0_17_113
*453 FILLER_0_17_125
*454 FILLER_0_17_137
*455 FILLER_0_17_149
*456 FILLER_0_17_15
*457 FILLER_0_17_161
*458 FILLER_0_17_167
*459 FILLER_0_17_169
*460 FILLER_0_17_181
*461 FILLER_0_17_193
*462 FILLER_0_17_205
*463 FILLER_0_17_217
*464 FILLER_0_17_223
*465 FILLER_0_17_225
*466 FILLER_0_17_237
*467 FILLER_0_17_249
*468 FILLER_0_17_261
*469 FILLER_0_17_27
*470 FILLER_0_17_273
*471 FILLER_0_17_279
*472 FILLER_0_17_281
*473 FILLER_0_17_293
*474 FILLER_0_17_3
*475 FILLER_0_17_305
*476 FILLER_0_17_317
*477 FILLER_0_17_329
*478 FILLER_0_17_39
*479 FILLER_0_17_51
*480 FILLER_0_17_55
*481 FILLER_0_17_57
*482 FILLER_0_17_69
*483 FILLER_0_17_81
*484 FILLER_0_17_93
*485 FILLER_0_18_109
*486 FILLER_0_18_121
*487 FILLER_0_18_133
*488 FILLER_0_18_139
*489 FILLER_0_18_141
*490 FILLER_0_18_15
*491 FILLER_0_18_153
*492 FILLER_0_18_165
*493 FILLER_0_18_177
*494 FILLER_0_18_189
*495 FILLER_0_18_195
*496 FILLER_0_18_197
*497 FILLER_0_18_209
*498 FILLER_0_18_221
*499 FILLER_0_18_233
*500 FILLER_0_18_245
*501 FILLER_0_18_251
*502 FILLER_0_18_253
*503 FILLER_0_18_265
*504 FILLER_0_18_27
*505 FILLER_0_18_277
*506 FILLER_0_18_289
*507 FILLER_0_18_29
*508 FILLER_0_18_3
*509 FILLER_0_18_301
*510 FILLER_0_18_307
*511 FILLER_0_18_309
*512 FILLER_0_18_321
*513 FILLER_0_18_333
*514 FILLER_0_18_41
*515 FILLER_0_18_53
*516 FILLER_0_18_65
*517 FILLER_0_18_77
*518 FILLER_0_18_83
*519 FILLER_0_18_85
*520 FILLER_0_18_97
*521 FILLER_0_19_105
*522 FILLER_0_19_111
*523 FILLER_0_19_113
*524 FILLER_0_19_125
*525 FILLER_0_19_137
*526 FILLER_0_19_149
*527 FILLER_0_19_15
*528 FILLER_0_19_161
*529 FILLER_0_19_167
*530 FILLER_0_19_169
*531 FILLER_0_19_181
*532 FILLER_0_19_193
*533 FILLER_0_19_205
*534 FILLER_0_19_217
*535 FILLER_0_19_223
*536 FILLER_0_19_225
*537 FILLER_0_19_237
*538 FILLER_0_19_249
*539 FILLER_0_19_261
*540 FILLER_0_19_27
*541 FILLER_0_19_273
*542 FILLER_0_19_279
*543 FILLER_0_19_281
*544 FILLER_0_19_293
*545 FILLER_0_19_3
*546 FILLER_0_19_305
*547 FILLER_0_19_317
*548 FILLER_0_19_329
*549 FILLER_0_19_39
*550 FILLER_0_19_51
*551 FILLER_0_19_55
*552 FILLER_0_19_57
*553 FILLER_0_19_69
*554 FILLER_0_19_81
*555 FILLER_0_19_93
*556 FILLER_0_1_105
*557 FILLER_0_1_111
*558 FILLER_0_1_113
*559 FILLER_0_1_125
*560 FILLER_0_1_137
*561 FILLER_0_1_149
*562 FILLER_0_1_15
*563 FILLER_0_1_161
*564 FILLER_0_1_167
*565 FILLER_0_1_169
*566 FILLER_0_1_181
*567 FILLER_0_1_193
*568 FILLER_0_1_205
*569 FILLER_0_1_217
*570 FILLER_0_1_223
*571 FILLER_0_1_225
*572 FILLER_0_1_237
*573 FILLER_0_1_249
*574 FILLER_0_1_261
*575 FILLER_0_1_27
*576 FILLER_0_1_273
*577 FILLER_0_1_279
*578 FILLER_0_1_281
*579 FILLER_0_1_293
*580 FILLER_0_1_3
*581 FILLER_0_1_305
*582 FILLER_0_1_317
*583 FILLER_0_1_329
*584 FILLER_0_1_39
*585 FILLER_0_1_51
*586 FILLER_0_1_55
*587 FILLER_0_1_57
*588 FILLER_0_1_69
*589 FILLER_0_1_81
*590 FILLER_0_1_93
*591 FILLER_0_20_109
*592 FILLER_0_20_121
*593 FILLER_0_20_133
*594 FILLER_0_20_139
*595 FILLER_0_20_141
*596 FILLER_0_20_15
*597 FILLER_0_20_153
*598 FILLER_0_20_165
*599 FILLER_0_20_177
*600 FILLER_0_20_189
*601 FILLER_0_20_195
*602 FILLER_0_20_197
*603 FILLER_0_20_209
*604 FILLER_0_20_221
*605 FILLER_0_20_233
*606 FILLER_0_20_245
*607 FILLER_0_20_251
*608 FILLER_0_20_253
*609 FILLER_0_20_265
*610 FILLER_0_20_27
*611 FILLER_0_20_277
*612 FILLER_0_20_289
*613 FILLER_0_20_29
*614 FILLER_0_20_3
*615 FILLER_0_20_301
*616 FILLER_0_20_307
*617 FILLER_0_20_309
*618 FILLER_0_20_321
*619 FILLER_0_20_333
*620 FILLER_0_20_41
*621 FILLER_0_20_53
*622 FILLER_0_20_65
*623 FILLER_0_20_77
*624 FILLER_0_20_83
*625 FILLER_0_20_85
*626 FILLER_0_20_97
*627 FILLER_0_21_105
*628 FILLER_0_21_111
*629 FILLER_0_21_113
*630 FILLER_0_21_125
*631 FILLER_0_21_137
*632 FILLER_0_21_149
*633 FILLER_0_21_15
*634 FILLER_0_21_161
*635 FILLER_0_21_167
*636 FILLER_0_21_169
*637 FILLER_0_21_181
*638 FILLER_0_21_193
*639 FILLER_0_21_205
*640 FILLER_0_21_217
*641 FILLER_0_21_223
*642 FILLER_0_21_225
*643 FILLER_0_21_237
*644 FILLER_0_21_249
*645 FILLER_0_21_261
*646 FILLER_0_21_27
*647 FILLER_0_21_273
*648 FILLER_0_21_279
*649 FILLER_0_21_281
*650 FILLER_0_21_293
*651 FILLER_0_21_3
*652 FILLER_0_21_305
*653 FILLER_0_21_317
*654 FILLER_0_21_329
*655 FILLER_0_21_39
*656 FILLER_0_21_51
*657 FILLER_0_21_55
*658 FILLER_0_21_57
*659 FILLER_0_21_69
*660 FILLER_0_21_81
*661 FILLER_0_21_93
*662 FILLER_0_22_109
*663 FILLER_0_22_121
*664 FILLER_0_22_133
*665 FILLER_0_22_139
*666 FILLER_0_22_141
*667 FILLER_0_22_15
*668 FILLER_0_22_153
*669 FILLER_0_22_165
*670 FILLER_0_22_177
*671 FILLER_0_22_189
*672 FILLER_0_22_195
*673 FILLER_0_22_197
*674 FILLER_0_22_209
*675 FILLER_0_22_221
*676 FILLER_0_22_233
*677 FILLER_0_22_245
*678 FILLER_0_22_251
*679 FILLER_0_22_253
*680 FILLER_0_22_265
*681 FILLER_0_22_27
*682 FILLER_0_22_277
*683 FILLER_0_22_289
*684 FILLER_0_22_29
*685 FILLER_0_22_3
*686 FILLER_0_22_301
*687 FILLER_0_22_307
*688 FILLER_0_22_309
*689 FILLER_0_22_321
*690 FILLER_0_22_333
*691 FILLER_0_22_41
*692 FILLER_0_22_53
*693 FILLER_0_22_65
*694 FILLER_0_22_77
*695 FILLER_0_22_83
*696 FILLER_0_22_85
*697 FILLER_0_22_97
*698 FILLER_0_23_105
*699 FILLER_0_23_111
*700 FILLER_0_23_113
*701 FILLER_0_23_125
*702 FILLER_0_23_137
*703 FILLER_0_23_149
*704 FILLER_0_23_15
*705 FILLER_0_23_161
*706 FILLER_0_23_167
*707 FILLER_0_23_169
*708 FILLER_0_23_181
*709 FILLER_0_23_193
*710 FILLER_0_23_205
*711 FILLER_0_23_217
*712 FILLER_0_23_223
*713 FILLER_0_23_225
*714 FILLER_0_23_237
*715 FILLER_0_23_249
*716 FILLER_0_23_261
*717 FILLER_0_23_27
*718 FILLER_0_23_273
*719 FILLER_0_23_279
*720 FILLER_0_23_281
*721 FILLER_0_23_293
*722 FILLER_0_23_3
*723 FILLER_0_23_305
*724 FILLER_0_23_317
*725 FILLER_0_23_329
*726 FILLER_0_23_39
*727 FILLER_0_23_51
*728 FILLER_0_23_55
*729 FILLER_0_23_57
*730 FILLER_0_23_69
*731 FILLER_0_23_81
*732 FILLER_0_23_93
*733 FILLER_0_24_109
*734 FILLER_0_24_121
*735 FILLER_0_24_133
*736 FILLER_0_24_139
*737 FILLER_0_24_141
*738 FILLER_0_24_15
*739 FILLER_0_24_153
*740 FILLER_0_24_165
*741 FILLER_0_24_177
*742 FILLER_0_24_189
*743 FILLER_0_24_195
*744 FILLER_0_24_197
*745 FILLER_0_24_209
*746 FILLER_0_24_221
*747 FILLER_0_24_233
*748 FILLER_0_24_245
*749 FILLER_0_24_251
*750 FILLER_0_24_253
*751 FILLER_0_24_265
*752 FILLER_0_24_27
*753 FILLER_0_24_277
*754 FILLER_0_24_289
*755 FILLER_0_24_29
*756 FILLER_0_24_3
*757 FILLER_0_24_301
*758 FILLER_0_24_307
*759 FILLER_0_24_309
*760 FILLER_0_24_321
*761 FILLER_0_24_333
*762 FILLER_0_24_41
*763 FILLER_0_24_53
*764 FILLER_0_24_65
*765 FILLER_0_24_77
*766 FILLER_0_24_83
*767 FILLER_0_24_85
*768 FILLER_0_24_97
*769 FILLER_0_25_105
*770 FILLER_0_25_111
*771 FILLER_0_25_113
*772 FILLER_0_25_125
*773 FILLER_0_25_137
*774 FILLER_0_25_149
*775 FILLER_0_25_15
*776 FILLER_0_25_161
*777 FILLER_0_25_167
*778 FILLER_0_25_169
*779 FILLER_0_25_181
*780 FILLER_0_25_193
*781 FILLER_0_25_205
*782 FILLER_0_25_217
*783 FILLER_0_25_223
*784 FILLER_0_25_225
*785 FILLER_0_25_237
*786 FILLER_0_25_249
*787 FILLER_0_25_261
*788 FILLER_0_25_27
*789 FILLER_0_25_273
*790 FILLER_0_25_279
*791 FILLER_0_25_281
*792 FILLER_0_25_293
*793 FILLER_0_25_3
*794 FILLER_0_25_305
*795 FILLER_0_25_317
*796 FILLER_0_25_329
*797 FILLER_0_25_39
*798 FILLER_0_25_51
*799 FILLER_0_25_55
*800 FILLER_0_25_57
*801 FILLER_0_25_69
*802 FILLER_0_25_81
*803 FILLER_0_25_93
*804 FILLER_0_26_109
*805 FILLER_0_26_121
*806 FILLER_0_26_133
*807 FILLER_0_26_139
*808 FILLER_0_26_141
*809 FILLER_0_26_15
*810 FILLER_0_26_153
*811 FILLER_0_26_165
*812 FILLER_0_26_177
*813 FILLER_0_26_189
*814 FILLER_0_26_195
*815 FILLER_0_26_197
*816 FILLER_0_26_209
*817 FILLER_0_26_221
*818 FILLER_0_26_233
*819 FILLER_0_26_245
*820 FILLER_0_26_251
*821 FILLER_0_26_253
*822 FILLER_0_26_265
*823 FILLER_0_26_27
*824 FILLER_0_26_277
*825 FILLER_0_26_289
*826 FILLER_0_26_29
*827 FILLER_0_26_3
*828 FILLER_0_26_301
*829 FILLER_0_26_307
*830 FILLER_0_26_309
*831 FILLER_0_26_321
*832 FILLER_0_26_333
*833 FILLER_0_26_41
*834 FILLER_0_26_53
*835 FILLER_0_26_65
*836 FILLER_0_26_77
*837 FILLER_0_26_83
*838 FILLER_0_26_85
*839 FILLER_0_26_97
*840 FILLER_0_27_105
*841 FILLER_0_27_111
*842 FILLER_0_27_113
*843 FILLER_0_27_125
*844 FILLER_0_27_137
*845 FILLER_0_27_149
*846 FILLER_0_27_15
*847 FILLER_0_27_161
*848 FILLER_0_27_167
*849 FILLER_0_27_169
*850 FILLER_0_27_181
*851 FILLER_0_27_193
*852 FILLER_0_27_205
*853 FILLER_0_27_217
*854 FILLER_0_27_223
*855 FILLER_0_27_225
*856 FILLER_0_27_237
*857 FILLER_0_27_249
*858 FILLER_0_27_261
*859 FILLER_0_27_27
*860 FILLER_0_27_273
*861 FILLER_0_27_279
*862 FILLER_0_27_281
*863 FILLER_0_27_293
*864 FILLER_0_27_3
*865 FILLER_0_27_305
*866 FILLER_0_27_317
*867 FILLER_0_27_329
*868 FILLER_0_27_39
*869 FILLER_0_27_51
*870 FILLER_0_27_55
*871 FILLER_0_27_57
*872 FILLER_0_27_69
*873 FILLER_0_27_81
*874 FILLER_0_27_93
*875 FILLER_0_28_109
*876 FILLER_0_28_121
*877 FILLER_0_28_133
*878 FILLER_0_28_139
*879 FILLER_0_28_141
*880 FILLER_0_28_15
*881 FILLER_0_28_153
*882 FILLER_0_28_165
*883 FILLER_0_28_177
*884 FILLER_0_28_189
*885 FILLER_0_28_195
*886 FILLER_0_28_197
*887 FILLER_0_28_209
*888 FILLER_0_28_221
*889 FILLER_0_28_233
*890 FILLER_0_28_245
*891 FILLER_0_28_251
*892 FILLER_0_28_253
*893 FILLER_0_28_265
*894 FILLER_0_28_27
*895 FILLER_0_28_277
*896 FILLER_0_28_289
*897 FILLER_0_28_29
*898 FILLER_0_28_3
*899 FILLER_0_28_301
*900 FILLER_0_28_307
*901 FILLER_0_28_309
*902 FILLER_0_28_321
*903 FILLER_0_28_333
*904 FILLER_0_28_41
*905 FILLER_0_28_53
*906 FILLER_0_28_65
*907 FILLER_0_28_80
*908 FILLER_0_28_85
*909 FILLER_0_28_97
*910 FILLER_0_29_102
*911 FILLER_0_29_110
*912 FILLER_0_29_121
*913 FILLER_0_29_133
*914 FILLER_0_29_145
*915 FILLER_0_29_15
*916 FILLER_0_29_157
*917 FILLER_0_29_165
*918 FILLER_0_29_169
*919 FILLER_0_29_181
*920 FILLER_0_29_193
*921 FILLER_0_29_205
*922 FILLER_0_29_217
*923 FILLER_0_29_223
*924 FILLER_0_29_225
*925 FILLER_0_29_237
*926 FILLER_0_29_249
*927 FILLER_0_29_261
*928 FILLER_0_29_27
*929 FILLER_0_29_273
*930 FILLER_0_29_279
*931 FILLER_0_29_281
*932 FILLER_0_29_293
*933 FILLER_0_29_3
*934 FILLER_0_29_305
*935 FILLER_0_29_317
*936 FILLER_0_29_329
*937 FILLER_0_29_39
*938 FILLER_0_29_51
*939 FILLER_0_29_55
*940 FILLER_0_29_57
*941 FILLER_0_29_69
*942 FILLER_0_29_73
*943 FILLER_0_29_90
*944 FILLER_0_2_109
*945 FILLER_0_2_121
*946 FILLER_0_2_133
*947 FILLER_0_2_139
*948 FILLER_0_2_141
*949 FILLER_0_2_15
*950 FILLER_0_2_153
*951 FILLER_0_2_165
*952 FILLER_0_2_177
*953 FILLER_0_2_189
*954 FILLER_0_2_195
*955 FILLER_0_2_197
*956 FILLER_0_2_209
*957 FILLER_0_2_221
*958 FILLER_0_2_233
*959 FILLER_0_2_245
*960 FILLER_0_2_251
*961 FILLER_0_2_253
*962 FILLER_0_2_265
*963 FILLER_0_2_27
*964 FILLER_0_2_277
*965 FILLER_0_2_289
*966 FILLER_0_2_29
*967 FILLER_0_2_3
*968 FILLER_0_2_301
*969 FILLER_0_2_307
*970 FILLER_0_2_309
*971 FILLER_0_2_321
*972 FILLER_0_2_333
*973 FILLER_0_2_41
*974 FILLER_0_2_53
*975 FILLER_0_2_65
*976 FILLER_0_2_77
*977 FILLER_0_2_83
*978 FILLER_0_2_85
*979 FILLER_0_2_97
*980 FILLER_0_30_101
*981 FILLER_0_30_122
*982 FILLER_0_30_139
*983 FILLER_0_30_144
*984 FILLER_0_30_15
*985 FILLER_0_30_156
*986 FILLER_0_30_168
*987 FILLER_0_30_180
*988 FILLER_0_30_192
*989 FILLER_0_30_197
*990 FILLER_0_30_209
*991 FILLER_0_30_221
*992 FILLER_0_30_233
*993 FILLER_0_30_245
*994 FILLER_0_30_251
*995 FILLER_0_30_253
*996 FILLER_0_30_265
*997 FILLER_0_30_27
*998 FILLER_0_30_277
*999 FILLER_0_30_289
*1000 FILLER_0_30_29
*1001 FILLER_0_30_3
*1002 FILLER_0_30_301
*1003 FILLER_0_30_307
*1004 FILLER_0_30_309
*1005 FILLER_0_30_321
*1006 FILLER_0_30_333
*1007 FILLER_0_31_113
*1008 FILLER_0_31_15
*1009 FILLER_0_31_151
*1010 FILLER_0_31_163
*1011 FILLER_0_31_167
*1012 FILLER_0_31_169
*1013 FILLER_0_31_181
*1014 FILLER_0_31_193
*1015 FILLER_0_31_205
*1016 FILLER_0_31_217
*1017 FILLER_0_31_223
*1018 FILLER_0_31_225
*1019 FILLER_0_31_237
*1020 FILLER_0_31_249
*1021 FILLER_0_31_261
*1022 FILLER_0_31_27
*1023 FILLER_0_31_273
*1024 FILLER_0_31_279
*1025 FILLER_0_31_281
*1026 FILLER_0_31_293
*1027 FILLER_0_31_3
*1028 FILLER_0_31_305
*1029 FILLER_0_31_317
*1030 FILLER_0_31_329
*1031 FILLER_0_31_51
*1032 FILLER_0_31_55
*1033 FILLER_0_31_57
*1034 FILLER_0_31_90
*1035 FILLER_0_32_139
*1036 FILLER_0_32_15
*1037 FILLER_0_32_161
*1038 FILLER_0_32_173
*1039 FILLER_0_32_185
*1040 FILLER_0_32_193
*1041 FILLER_0_32_197
*1042 FILLER_0_32_209
*1043 FILLER_0_32_221
*1044 FILLER_0_32_233
*1045 FILLER_0_32_245
*1046 FILLER_0_32_251
*1047 FILLER_0_32_253
*1048 FILLER_0_32_265
*1049 FILLER_0_32_277
*1050 FILLER_0_32_289
*1051 FILLER_0_32_3
*1052 FILLER_0_32_301
*1053 FILLER_0_32_307
*1054 FILLER_0_32_309
*1055 FILLER_0_32_321
*1056 FILLER_0_32_333
*1057 FILLER_0_32_45
*1058 FILLER_0_32_56
*1059 FILLER_0_32_70
*1060 FILLER_0_32_93
*1061 FILLER_0_32_97
*1062 FILLER_0_33_113
*1063 FILLER_0_33_148
*1064 FILLER_0_33_15
*1065 FILLER_0_33_166
*1066 FILLER_0_33_177
*1067 FILLER_0_33_189
*1068 FILLER_0_33_201
*1069 FILLER_0_33_213
*1070 FILLER_0_33_221
*1071 FILLER_0_33_225
*1072 FILLER_0_33_237
*1073 FILLER_0_33_249
*1074 FILLER_0_33_261
*1075 FILLER_0_33_273
*1076 FILLER_0_33_279
*1077 FILLER_0_33_281
*1078 FILLER_0_33_293
*1079 FILLER_0_33_3
*1080 FILLER_0_33_305
*1081 FILLER_0_33_317
*1082 FILLER_0_33_329
*1083 FILLER_0_33_57
*1084 FILLER_0_33_71
*1085 FILLER_0_33_83
*1086 FILLER_0_33_93
*1087 FILLER_0_34_11
*1088 FILLER_0_34_149
*1089 FILLER_0_34_170
*1090 FILLER_0_34_182
*1091 FILLER_0_34_194
*1092 FILLER_0_34_197
*1093 FILLER_0_34_209
*1094 FILLER_0_34_221
*1095 FILLER_0_34_233
*1096 FILLER_0_34_245
*1097 FILLER_0_34_251
*1098 FILLER_0_34_253
*1099 FILLER_0_34_265
*1100 FILLER_0_34_277
*1101 FILLER_0_34_289
*1102 FILLER_0_34_29
*1103 FILLER_0_34_3
*1104 FILLER_0_34_301
*1105 FILLER_0_34_307
*1106 FILLER_0_34_309
*1107 FILLER_0_34_321
*1108 FILLER_0_34_333
*1109 FILLER_0_34_52
*1110 FILLER_0_34_56
*1111 FILLER_0_34_85
*1112 FILLER_0_35_116
*1113 FILLER_0_35_126
*1114 FILLER_0_35_15
*1115 FILLER_0_35_152
*1116 FILLER_0_35_162
*1117 FILLER_0_35_169
*1118 FILLER_0_35_181
*1119 FILLER_0_35_193
*1120 FILLER_0_35_205
*1121 FILLER_0_35_217
*1122 FILLER_0_35_223
*1123 FILLER_0_35_225
*1124 FILLER_0_35_237
*1125 FILLER_0_35_249
*1126 FILLER_0_35_261
*1127 FILLER_0_35_273
*1128 FILLER_0_35_279
*1129 FILLER_0_35_281
*1130 FILLER_0_35_293
*1131 FILLER_0_35_3
*1132 FILLER_0_35_305
*1133 FILLER_0_35_317
*1134 FILLER_0_35_329
*1135 FILLER_0_36_136
*1136 FILLER_0_36_149
*1137 FILLER_0_36_15
*1138 FILLER_0_36_153
*1139 FILLER_0_36_178
*1140 FILLER_0_36_190
*1141 FILLER_0_36_197
*1142 FILLER_0_36_209
*1143 FILLER_0_36_221
*1144 FILLER_0_36_23
*1145 FILLER_0_36_233
*1146 FILLER_0_36_245
*1147 FILLER_0_36_251
*1148 FILLER_0_36_253
*1149 FILLER_0_36_265
*1150 FILLER_0_36_277
*1151 FILLER_0_36_289
*1152 FILLER_0_36_3
*1153 FILLER_0_36_301
*1154 FILLER_0_36_307
*1155 FILLER_0_36_309
*1156 FILLER_0_36_321
*1157 FILLER_0_36_333
*1158 FILLER_0_37_144
*1159 FILLER_0_37_15
*1160 FILLER_0_37_154
*1161 FILLER_0_37_169
*1162 FILLER_0_37_181
*1163 FILLER_0_37_193
*1164 FILLER_0_37_205
*1165 FILLER_0_37_217
*1166 FILLER_0_37_223
*1167 FILLER_0_37_225
*1168 FILLER_0_37_237
*1169 FILLER_0_37_249
*1170 FILLER_0_37_261
*1171 FILLER_0_37_273
*1172 FILLER_0_37_279
*1173 FILLER_0_37_281
*1174 FILLER_0_37_293
*1175 FILLER_0_37_3
*1176 FILLER_0_37_305
*1177 FILLER_0_37_317
*1178 FILLER_0_37_329
*1179 FILLER_0_37_44
*1180 FILLER_0_37_55
*1181 FILLER_0_37_57
*1182 FILLER_0_37_65
*1183 FILLER_0_38_10
*1184 FILLER_0_38_102
*1185 FILLER_0_38_119
*1186 FILLER_0_38_129
*1187 FILLER_0_38_134
*1188 FILLER_0_38_14
*1189 FILLER_0_38_144
*1190 FILLER_0_38_150
*1191 FILLER_0_38_154
*1192 FILLER_0_38_158
*1193 FILLER_0_38_162
*1194 FILLER_0_38_166
*1195 FILLER_0_38_169
*1196 FILLER_0_38_174
*1197 FILLER_0_38_178
*1198 FILLER_0_38_18
*1199 FILLER_0_38_182
*1200 FILLER_0_38_186
*1201 FILLER_0_38_190
*1202 FILLER_0_38_197
*1203 FILLER_0_38_209
*1204 FILLER_0_38_22
*1205 FILLER_0_38_221
*1206 FILLER_0_38_225
*1207 FILLER_0_38_237
*1208 FILLER_0_38_249
*1209 FILLER_0_38_253
*1210 FILLER_0_38_265
*1211 FILLER_0_38_277
*1212 FILLER_0_38_281
*1213 FILLER_0_38_293
*1214 FILLER_0_38_305
*1215 FILLER_0_38_313
*1216 FILLER_0_38_318
*1217 FILLER_0_38_330
*1218 FILLER_0_38_334
*1219 FILLER_0_38_49
*1220 FILLER_0_38_6
*1221 FILLER_0_38_75
*1222 FILLER_0_38_95
*1223 FILLER_0_3_105
*1224 FILLER_0_3_111
*1225 FILLER_0_3_113
*1226 FILLER_0_3_125
*1227 FILLER_0_3_137
*1228 FILLER_0_3_149
*1229 FILLER_0_3_15
*1230 FILLER_0_3_161
*1231 FILLER_0_3_167
*1232 FILLER_0_3_169
*1233 FILLER_0_3_181
*1234 FILLER_0_3_193
*1235 FILLER_0_3_205
*1236 FILLER_0_3_217
*1237 FILLER_0_3_223
*1238 FILLER_0_3_225
*1239 FILLER_0_3_237
*1240 FILLER_0_3_249
*1241 FILLER_0_3_261
*1242 FILLER_0_3_27
*1243 FILLER_0_3_273
*1244 FILLER_0_3_279
*1245 FILLER_0_3_281
*1246 FILLER_0_3_293
*1247 FILLER_0_3_3
*1248 FILLER_0_3_305
*1249 FILLER_0_3_317
*1250 FILLER_0_3_329
*1251 FILLER_0_3_39
*1252 FILLER_0_3_51
*1253 FILLER_0_3_55
*1254 FILLER_0_3_57
*1255 FILLER_0_3_69
*1256 FILLER_0_3_81
*1257 FILLER_0_3_93
*1258 FILLER_0_4_109
*1259 FILLER_0_4_121
*1260 FILLER_0_4_133
*1261 FILLER_0_4_139
*1262 FILLER_0_4_141
*1263 FILLER_0_4_15
*1264 FILLER_0_4_153
*1265 FILLER_0_4_165
*1266 FILLER_0_4_177
*1267 FILLER_0_4_189
*1268 FILLER_0_4_195
*1269 FILLER_0_4_197
*1270 FILLER_0_4_209
*1271 FILLER_0_4_221
*1272 FILLER_0_4_233
*1273 FILLER_0_4_245
*1274 FILLER_0_4_251
*1275 FILLER_0_4_253
*1276 FILLER_0_4_265
*1277 FILLER_0_4_27
*1278 FILLER_0_4_277
*1279 FILLER_0_4_289
*1280 FILLER_0_4_29
*1281 FILLER_0_4_3
*1282 FILLER_0_4_301
*1283 FILLER_0_4_307
*1284 FILLER_0_4_309
*1285 FILLER_0_4_321
*1286 FILLER_0_4_333
*1287 FILLER_0_4_41
*1288 FILLER_0_4_53
*1289 FILLER_0_4_65
*1290 FILLER_0_4_77
*1291 FILLER_0_4_83
*1292 FILLER_0_4_85
*1293 FILLER_0_4_97
*1294 FILLER_0_5_105
*1295 FILLER_0_5_111
*1296 FILLER_0_5_113
*1297 FILLER_0_5_125
*1298 FILLER_0_5_137
*1299 FILLER_0_5_149
*1300 FILLER_0_5_15
*1301 FILLER_0_5_161
*1302 FILLER_0_5_167
*1303 FILLER_0_5_169
*1304 FILLER_0_5_181
*1305 FILLER_0_5_193
*1306 FILLER_0_5_205
*1307 FILLER_0_5_217
*1308 FILLER_0_5_223
*1309 FILLER_0_5_225
*1310 FILLER_0_5_237
*1311 FILLER_0_5_249
*1312 FILLER_0_5_261
*1313 FILLER_0_5_27
*1314 FILLER_0_5_273
*1315 FILLER_0_5_279
*1316 FILLER_0_5_281
*1317 FILLER_0_5_293
*1318 FILLER_0_5_3
*1319 FILLER_0_5_305
*1320 FILLER_0_5_317
*1321 FILLER_0_5_329
*1322 FILLER_0_5_39
*1323 FILLER_0_5_51
*1324 FILLER_0_5_55
*1325 FILLER_0_5_57
*1326 FILLER_0_5_69
*1327 FILLER_0_5_81
*1328 FILLER_0_5_93
*1329 FILLER_0_6_109
*1330 FILLER_0_6_121
*1331 FILLER_0_6_133
*1332 FILLER_0_6_139
*1333 FILLER_0_6_141
*1334 FILLER_0_6_15
*1335 FILLER_0_6_153
*1336 FILLER_0_6_165
*1337 FILLER_0_6_177
*1338 FILLER_0_6_189
*1339 FILLER_0_6_195
*1340 FILLER_0_6_197
*1341 FILLER_0_6_209
*1342 FILLER_0_6_221
*1343 FILLER_0_6_233
*1344 FILLER_0_6_245
*1345 FILLER_0_6_251
*1346 FILLER_0_6_253
*1347 FILLER_0_6_265
*1348 FILLER_0_6_27
*1349 FILLER_0_6_277
*1350 FILLER_0_6_289
*1351 FILLER_0_6_29
*1352 FILLER_0_6_3
*1353 FILLER_0_6_301
*1354 FILLER_0_6_307
*1355 FILLER_0_6_309
*1356 FILLER_0_6_321
*1357 FILLER_0_6_333
*1358 FILLER_0_6_41
*1359 FILLER_0_6_53
*1360 FILLER_0_6_65
*1361 FILLER_0_6_77
*1362 FILLER_0_6_83
*1363 FILLER_0_6_85
*1364 FILLER_0_6_97
*1365 FILLER_0_7_105
*1366 FILLER_0_7_111
*1367 FILLER_0_7_113
*1368 FILLER_0_7_125
*1369 FILLER_0_7_137
*1370 FILLER_0_7_149
*1371 FILLER_0_7_15
*1372 FILLER_0_7_161
*1373 FILLER_0_7_167
*1374 FILLER_0_7_169
*1375 FILLER_0_7_181
*1376 FILLER_0_7_193
*1377 FILLER_0_7_205
*1378 FILLER_0_7_217
*1379 FILLER_0_7_223
*1380 FILLER_0_7_225
*1381 FILLER_0_7_237
*1382 FILLER_0_7_249
*1383 FILLER_0_7_261
*1384 FILLER_0_7_27
*1385 FILLER_0_7_273
*1386 FILLER_0_7_279
*1387 FILLER_0_7_281
*1388 FILLER_0_7_293
*1389 FILLER_0_7_3
*1390 FILLER_0_7_305
*1391 FILLER_0_7_317
*1392 FILLER_0_7_329
*1393 FILLER_0_7_39
*1394 FILLER_0_7_51
*1395 FILLER_0_7_55
*1396 FILLER_0_7_57
*1397 FILLER_0_7_69
*1398 FILLER_0_7_81
*1399 FILLER_0_7_93
*1400 FILLER_0_8_109
*1401 FILLER_0_8_121
*1402 FILLER_0_8_133
*1403 FILLER_0_8_139
*1404 FILLER_0_8_141
*1405 FILLER_0_8_15
*1406 FILLER_0_8_153
*1407 FILLER_0_8_165
*1408 FILLER_0_8_177
*1409 FILLER_0_8_189
*1410 FILLER_0_8_195
*1411 FILLER_0_8_197
*1412 FILLER_0_8_209
*1413 FILLER_0_8_221
*1414 FILLER_0_8_233
*1415 FILLER_0_8_245
*1416 FILLER_0_8_251
*1417 FILLER_0_8_253
*1418 FILLER_0_8_265
*1419 FILLER_0_8_27
*1420 FILLER_0_8_277
*1421 FILLER_0_8_289
*1422 FILLER_0_8_29
*1423 FILLER_0_8_3
*1424 FILLER_0_8_301
*1425 FILLER_0_8_307
*1426 FILLER_0_8_309
*1427 FILLER_0_8_321
*1428 FILLER_0_8_333
*1429 FILLER_0_8_41
*1430 FILLER_0_8_53
*1431 FILLER_0_8_65
*1432 FILLER_0_8_77
*1433 FILLER_0_8_83
*1434 FILLER_0_8_85
*1435 FILLER_0_8_97
*1436 FILLER_0_9_105
*1437 FILLER_0_9_111
*1438 FILLER_0_9_113
*1439 FILLER_0_9_125
*1440 FILLER_0_9_137
*1441 FILLER_0_9_149
*1442 FILLER_0_9_15
*1443 FILLER_0_9_161
*1444 FILLER_0_9_167
*1445 FILLER_0_9_169
*1446 FILLER_0_9_181
*1447 FILLER_0_9_193
*1448 FILLER_0_9_205
*1449 FILLER_0_9_217
*1450 FILLER_0_9_223
*1451 FILLER_0_9_225
*1452 FILLER_0_9_237
*1453 FILLER_0_9_249
*1454 FILLER_0_9_261
*1455 FILLER_0_9_27
*1456 FILLER_0_9_273
*1457 FILLER_0_9_279
*1458 FILLER_0_9_281
*1459 FILLER_0_9_293
*1460 FILLER_0_9_3
*1461 FILLER_0_9_305
*1462 FILLER_0_9_317
*1463 FILLER_0_9_329
*1464 FILLER_0_9_39
*1465 FILLER_0_9_51
*1466 FILLER_0_9_55
*1467 FILLER_0_9_57
*1468 FILLER_0_9_69
*1469 FILLER_0_9_81
*1470 FILLER_0_9_93
*1471 PHY_EDGE_ROW_0_Left_39
*1472 PHY_EDGE_ROW_0_Right_0
*1473 PHY_EDGE_ROW_10_Left_49
*1474 PHY_EDGE_ROW_10_Right_10
*1475 PHY_EDGE_ROW_11_Left_50
*1476 PHY_EDGE_ROW_11_Right_11
*1477 PHY_EDGE_ROW_12_Left_51
*1478 PHY_EDGE_ROW_12_Right_12
*1479 PHY_EDGE_ROW_13_Left_52
*1480 PHY_EDGE_ROW_13_Right_13
*1481 PHY_EDGE_ROW_14_Left_53
*1482 PHY_EDGE_ROW_14_Right_14
*1483 PHY_EDGE_ROW_15_Left_54
*1484 PHY_EDGE_ROW_15_Right_15
*1485 PHY_EDGE_ROW_16_Left_55
*1486 PHY_EDGE_ROW_16_Right_16
*1487 PHY_EDGE_ROW_17_Left_56
*1488 PHY_EDGE_ROW_17_Right_17
*1489 PHY_EDGE_ROW_18_Left_57
*1490 PHY_EDGE_ROW_18_Right_18