*SPEF "ieee 1481-1999"
*DESIGN "tt_um_UABCReloj"
*DATE "11:11:11 Fri 11 11, 1111"
*VENDOR "OpenRCX"
*PROGRAM "Parallel Extraction"
*VERSION "1.0"
*DESIGN_FLOW "NAME_SCOPE LOCAL" "PIN_CAP NONE"
*DIVIDER /
*DELIMITER :
*BUS_DELIMITER []
*T_UNIT 1 NS
*C_UNIT 1 PF
*R_UNIT 1 OHM
*L_UNIT 1 HENRY

*NAME_MAP
*3 clk
*4 ena
*5 rst_n
*6 ui_in[0]
*7 ui_in[1]
*8 ui_in[2]
*9 ui_in[3]
*10 ui_in[4]
*11 ui_in[5]
*12 ui_in[6]
*13 ui_in[7]
*14 uio_in[0]
*15 uio_in[1]
*16 uio_in[2]
*17 uio_in[3]
*18 uio_in[4]
*19 uio_in[5]
*20 uio_in[6]
*21 uio_in[7]
*22 net6
*23 net7
*24 net8
*25 net9
*26 net10
*27 net11
*28 net12
*29 net13
*30 uio_out[0]
*31 uio_out[1]
*32 uio_out[2]
*33 uio_out[3]
*34 uio_out[4]
*35 uio_out[5]
*36 uio_out[6]
*37 net5
*38 uo_out[0]
*39 uo_out[1]
*40 uo_out[2]
*41 uo_out[3]
*42 uo_out[4]
*43 uo_out[5]
*44 uo_out[6]
*45 uo_out[7]
*46 U0\.Dots
*47 U0\.H0A\[0\]
*48 U0\.H0A\[1\]
*49 U0\.H0A\[2\]
*50 U0\.H0A\[3\]
*51 U0\.H1A\[0\]
*52 U0\.H1A\[1\]
*53 U0\.M0A\[0\]
*54 U0\.M0A\[1\]
*55 U0\.M0A\[2\]
*56 U0\.M0A\[3\]
*57 U0\.M1A\[0\]
*58 U0\.M1A\[1\]
*59 U0\.M1A\[2\]
*60 U0\.M1A\[3\]
*61 U0\.U0\.D\[0\]
*62 U0\.U0\.D\[1\]
*63 U0\.U0\.D\[2\]
*64 U0\.U0\.D\[3\]
*65 U0\.U0\.Q\[0\]
*66 U0\.U0\.Q\[1\]
*67 U0\.U0\.Q\[2\]
*68 U0\.U0\.Q\[3\]
*69 U0\.U1\.D\[0\]
*70 U0\.U1\.D\[1\]
*71 U0\.U1\.D\[2\]
*72 U0\.U1\.D\[3\]
*73 U0\.U1\.Q\[0\]
*74 U0\.U1\.Q\[1\]
*75 U0\.U1\.Q\[2\]
*76 U0\.U1\.Q\[3\]
*77 U0\.U10\.selA\[0\]
*78 U0\.U10\.selA\[1\]
*79 U0\.U11\.D\[0\]
*80 U0\.U11\.D\[1\]
*81 U0\.U2\.D\[0\]
*82 U0\.U2\.D\[1\]
*83 U0\.U2\.D\[2\]
*84 U0\.U2\.D\[3\]
*85 U0\.U23\.U0\.D\[0\]
*86 U0\.U23\.U0\.D\[1\]
*87 U0\.U23\.U0\.D\[2\]
*88 U0\.U23\.U0\.D\[3\]
*89 U0\.U23\.U0\.Q\[0\]
*90 U0\.U23\.U0\.Q\[1\]
*91 U0\.U23\.U0\.Q\[2\]
*92 U0\.U23\.U0\.Q\[3\]
*93 U0\.U23\.U1\.D\[0\]
*94 U0\.U23\.U1\.D\[1\]
*95 U0\.U23\.U1\.D\[2\]
*96 U0\.U23\.U1\.D\[3\]
*97 U0\.U23\.U1\.Q\[0\]
*98 U0\.U23\.U1\.Q\[1\]
*99 U0\.U23\.U1\.Q\[2\]
*100 U0\.U23\.U1\.Q\[3\]
*101 U0\.U23\.U2\.D\[0\]
*102 U0\.U23\.U2\.D\[1\]
*103 U0\.U23\.U2\.D\[2\]
*104 U0\.U23\.U2\.D\[3\]
*105 U0\.U23\.U2\.Q\[0\]
*106 U0\.U23\.U2\.Q\[1\]
*107 U0\.U23\.U2\.Q\[2\]
*108 U0\.U23\.U2\.Q\[3\]
*109 U0\.U23\.U3\.D\[0\]
*110 U0\.U23\.U3\.D\[1\]
*111 U0\.U23\.U3\.D\[2\]
*112 U0\.U23\.U3\.D\[3\]
*113 U0\.U23\.U3\.Q\[0\]
*114 U0\.U23\.U3\.Q\[1\]
*115 U0\.U23\.U3\.Q\[2\]
*116 U0\.U23\.U3\.Q\[3\]
*117 U0\.U23\.U4\.D
*118 U0\.U23\.U4\.Q
*119 U0\.U3\.D\[0\]
*120 U0\.U3\.D\[1\]
*121 U0\.U3\.D\[2\]
*122 U0\.U3\.D\[3\]
*123 U0\.U4\.D0\[0\]
*124 U0\.U4\.D0\[1\]
*125 U0\.U4\.D0\[2\]
*126 U0\.U4\.D0\[3\]
*127 U0\.U4\.D1\[0\]
*128 U0\.U4\.D1\[1\]
*129 U0\.U7\.D\[0\]
*130 U0\.U7\.D\[1\]
*131 U0\.U7\.D\[2\]
*132 U0\.U7\.D\[3\]
*133 U0\.U7\.Q\[0\]
*134 U0\.U7\.Q\[1\]
*135 U0\.U7\.Q\[2\]
*136 U0\.U7\.Q\[3\]
*137 U0\.U8\.D\[0\]
*138 U0\.U8\.D\[1\]
*139 U0\.U8\.D\[2\]
*140 U0\.U8\.D\[3\]
*141 U0\.U8\.Q\[0\]
*142 U0\.U8\.Q\[1\]
*143 U0\.U8\.Q\[2\]
*144 U0\.U8\.Q\[3\]
*145 U0\.U9\.D
*146 _000_
*147 _001_
*148 _002_
*149 _003_
*150 _004_
*151 _005_
*152 _006_
*153 _007_
*154 _008_
*155 _009_
*156 _010_
*157 _011_
*158 _012_
*159 _013_
*160 _014_
*161 _015_
*162 _016_
*163 _017_
*164 _018_
*165 _019_
*166 _020_
*167 _021_
*168 _022_
*169 _023_
*170 _024_
*171 _025_
*172 _026_
*173 _027_
*174 _028_
*175 _029_
*176 _030_
*177 _031_
*178 _032_
*179 _033_
*180 _034_
*181 _035_
*182 _036_
*183 _037_
*184 _038_
*185 _039_
*186 _040_
*187 _041_
*188 _042_
*189 _043_
*190 _044_
*191 _045_
*192 _046_
*193 _047_
*194 _048_
*195 _049_
*196 _050_
*197 _051_
*198 _052_
*199 _053_
*200 _054_
*201 _055_
*202 _056_
*203 _057_
*204 _058_
*205 _059_
*206 _060_
*207 _061_
*208 _062_
*209 _063_
*210 _064_
*211 _065_
*212 _066_
*213 _067_
*214 _068_
*215 _069_
*216 _070_
*217 _071_
*218 _072_
*219 _073_
*220 _074_
*221 _075_
*222 _076_
*223 _077_
*224 _078_
*225 _079_
*226 _080_
*227 _081_
*228 _082_
*229 _083_
*230 _084_
*231 _085_
*232 _086_
*233 _087_
*234 _088_
*235 _089_
*236 _090_
*237 _091_
*238 _092_
*239 _093_
*240 _094_
*241 _095_
*242 _096_
*243 _097_
*244 _098_
*245 _099_
*246 _100_
*247 _101_
*248 _102_
*249 _103_
*250 _104_
*251 _105_
*252 _106_
*253 _107_
*254 _108_
*255 _109_
*256 _110_
*257 _111_
*258 _112_
*259 _113_
*260 _114_
*261 _115_
*262 _116_
*263 _117_
*264 _118_
*265 _119_
*266 _120_
*267 _121_
*268 _122_
*269 _123_
*270 _124_
*271 _125_
*272 _126_
*273 _127_
*274 _128_
*275 _129_
*276 _130_
*277 _131_
*278 _132_
*279 _133_
*280 _134_
*281 _135_
*282 _136_
*283 _137_
*284 _138_
*285 _139_
*286 _140_
*287 _141_
*288 _142_
*289 _143_
*290 _144_
*291 _145_
*292 _146_
*293 _147_
*294 _148_
*295 _149_
*296 _150_
*297 _151_
*298 _152_
*299 _153_
*300 _154_
*301 _155_
*302 _156_
*303 _157_
*304 _158_
*305 _159_
*306 _160_
*307 _161_
*308 _162_
*309 _163_
*310 _164_
*311 _165_
*312 _166_
*313 _167_
*314 _168_
*315 _169_
*316 _170_
*317 _171_
*318 _172_
*319 _173_
*320 _174_
*321 _175_
*322 _176_
*323 _177_
*324 _178_
*325 _179_
*326 _180_
*327 _181_
*328 _182_
*329 _183_
*330 _184_
*331 _185_
*332 _186_
*333 _187_
*334 _188_
*335 _189_
*336 _190_
*337 _191_
*338 _192_
*339 _193_
*340 net1
*341 net2
*342 net3
*343 net4
*344 FILLER_0_0_109
*345 FILLER_0_0_113
*346 FILLER_0_0_125
*347 FILLER_0_0_137
*348 FILLER_0_0_141
*349 FILLER_0_0_15
*350 FILLER_0_0_153
*351 FILLER_0_0_165
*352 FILLER_0_0_169
*353 FILLER_0_0_181
*354 FILLER_0_0_193
*355 FILLER_0_0_197
*356 FILLER_0_0_209
*357 FILLER_0_0_221
*358 FILLER_0_0_225
*359 FILLER_0_0_237
*360 FILLER_0_0_249
*361 FILLER_0_0_253
*362 FILLER_0_0_265
*363 FILLER_0_0_27
*364 FILLER_0_0_277
*365 FILLER_0_0_281
*366 FILLER_0_0_29
*367 FILLER_0_0_293
*368 FILLER_0_0_3
*369 FILLER_0_0_305
*370 FILLER_0_0_309
*371 FILLER_0_0_321
*372 FILLER_0_0_333
*373 FILLER_0_0_41
*374 FILLER_0_0_53
*375 FILLER_0_0_57
*376 FILLER_0_0_69
*377 FILLER_0_0_81
*378 FILLER_0_0_85
*379 FILLER_0_0_97
*380 FILLER_0_10_109
*381 FILLER_0_10_121
*382 FILLER_0_10_133
*383 FILLER_0_10_139
*384 FILLER_0_10_141
*385 FILLER_0_10_15
*386 FILLER_0_10_153
*387 FILLER_0_10_165
*388 FILLER_0_10_177
*389 FILLER_0_10_189
*390 FILLER_0_10_195
*391 FILLER_0_10_197
*392 FILLER_0_10_209
*393 FILLER_0_10_221
*394 FILLER_0_10_233
*395 FILLER_0_10_245
*396 FILLER_0_10_251
*397 FILLER_0_10_253
*398 FILLER_0_10_265
*399 FILLER_0_10_27
*400 FILLER_0_10_277
*401 FILLER_0_10_289
*402 FILLER_0_10_29
*403 FILLER_0_10_3
*404 FILLER_0_10_301
*405 FILLER_0_10_307
*406 FILLER_0_10_309
*407 FILLER_0_10_321
*408 FILLER_0_10_333
*409 FILLER_0_10_41
*410 FILLER_0_10_53
*411 FILLER_0_10_65
*412 FILLER_0_10_77
*413 FILLER_0_10_83
*414 FILLER_0_10_85
*415 FILLER_0_10_97
*416 FILLER_0_11_105
*417 FILLER_0_11_111
*418 FILLER_0_11_113
*419 FILLER_0_11_125
*420 FILLER_0_11_137
*421 FILLER_0_11_149
*422 FILLER_0_11_15
*423 FILLER_0_11_161
*424 FILLER_0_11_167
*425 FILLER_0_11_169
*426 FILLER_0_11_181
*427 FILLER_0_11_193
*428 FILLER_0_11_205
*429 FILLER_0_11_217
*430 FILLER_0_11_223
*431 FILLER_0_11_225
*432 FILLER_0_11_237
*433 FILLER_0_11_249
*434 FILLER_0_11_261
*435 FILLER_0_11_27
*436 FILLER_0_11_273
*437 FILLER_0_11_279
*438 FILLER_0_11_281
*439 FILLER_0_11_293
*440 FILLER_0_11_3
*441 FILLER_0_11_305
*442 FILLER_0_11_317
*443 FILLER_0_11_329
*444 FILLER_0_11_39
*445 FILLER_0_11_51
*446 FILLER_0_11_55
*447 FILLER_0_11_57
*448 FILLER_0_11_69
*449 FILLER_0_11_81
*450 FILLER_0_11_93
*451 FILLER_0_12_109
*452 FILLER_0_12_121
*453 FILLER_0_12_133
*454 FILLER_0_12_139
*455 FILLER_0_12_141
*456 FILLER_0_12_15
*457 FILLER_0_12_153
*458 FILLER_0_12_165
*459 FILLER_0_12_177
*460 FILLER_0_12_189
*461 FILLER_0_12_195
*462 FILLER_0_12_197
*463 FILLER_0_12_209
*464 FILLER_0_12_221
*465 FILLER_0_12_233
*466 FILLER_0_12_245
*467 FILLER_0_12_251
*468 FILLER_0_12_253
*469 FILLER_0_12_265
*470 FILLER_0_12_27
*471 FILLER_0_12_277
*472 FILLER_0_12_289
*473 FILLER_0_12_29
*474 FILLER_0_12_3
*475 FILLER_0_12_301
*476 FILLER_0_12_307
*477 FILLER_0_12_309
*478 FILLER_0_12_321
*479 FILLER_0_12_333
*480 FILLER_0_12_41
*481 FILLER_0_12_53
*482 FILLER_0_12_65
*483 FILLER_0_12_77
*484 FILLER_0_12_83
*485 FILLER_0_12_85
*486 FILLER_0_12_97
*487 FILLER_0_13_105
*488 FILLER_0_13_111
*489 FILLER_0_13_113
*490 FILLER_0_13_125
*491 FILLER_0_13_137
*492 FILLER_0_13_149
*493 FILLER_0_13_15
*494 FILLER_0_13_161
*495 FILLER_0_13_167
*496 FILLER_0_13_169
*497 FILLER_0_13_181
*498 FILLER_0_13_193
*499 FILLER_0_13_205
*500 FILLER_0_13_217
*501 FILLER_0_13_223
*502 FILLER_0_13_225
*503 FILLER_0_13_237
*504 FILLER_0_13_249
*505 FILLER_0_13_261
*506 FILLER_0_13_27
*507 FILLER_0_13_273
*508 FILLER_0_13_279
*509 FILLER_0_13_281
*510 FILLER_0_13_293
*511 FILLER_0_13_3
*512 FILLER_0_13_305
*513 FILLER_0_13_317
*514 FILLER_0_13_329
*515 FILLER_0_13_39
*516 FILLER_0_13_51
*517 FILLER_0_13_55
*518 FILLER_0_13_57
*519 FILLER_0_13_69
*520 FILLER_0_13_81
*521 FILLER_0_13_93
*522 FILLER_0_14_109
*523 FILLER_0_14_121
*524 FILLER_0_14_133
*525 FILLER_0_14_139
*526 FILLER_0_14_141
*527 FILLER_0_14_15
*528 FILLER_0_14_153
*529 FILLER_0_14_165
*530 FILLER_0_14_177
*531 FILLER_0_14_189
*532 FILLER_0_14_195
*533 FILLER_0_14_197
*534 FILLER_0_14_209
*535 FILLER_0_14_221
*536 FILLER_0_14_233
*537 FILLER_0_14_245
*538 FILLER_0_14_251
*539 FILLER_0_14_253
*540 FILLER_0_14_265
*541 FILLER_0_14_27
*542 FILLER_0_14_277
*543 FILLER_0_14_289
*544 FILLER_0_14_29
*545 FILLER_0_14_3
*546 FILLER_0_14_301
*547 FILLER_0_14_307
*548 FILLER_0_14_309
*549 FILLER_0_14_321
*550 FILLER_0_14_333
*551 FILLER_0_14_41
*552 FILLER_0_14_53
*553 FILLER_0_14_65
*554 FILLER_0_14_77
*555 FILLER_0_14_83
*556 FILLER_0_14_85
*557 FILLER_0_14_97
*558 FILLER_0_15_105
*559 FILLER_0_15_111
*560 FILLER_0_15_113
*561 FILLER_0_15_125
*562 FILLER_0_15_137
*563 FILLER_0_15_149
*564 FILLER_0_15_15
*565 FILLER_0_15_161
*566 FILLER_0_15_167
*567 FILLER_0_15_169
*568 FILLER_0_15_181
*569 FILLER_0_15_193
*570 FILLER_0_15_205
*571 FILLER_0_15_217
*572 FILLER_0_15_223
*573 FILLER_0_15_225
*574 FILLER_0_15_237
*575 FILLER_0_15_249
*576 FILLER_0_15_261
*577 FILLER_0_15_27
*578 FILLER_0_15_273
*579 FILLER_0_15_279
*580 FILLER_0_15_281
*581 FILLER_0_15_293
*582 FILLER_0_15_3
*583 FILLER_0_15_305
*584 FILLER_0_15_317
*585 FILLER_0_15_329
*586 FILLER_0_15_39
*587 FILLER_0_15_51
*588 FILLER_0_15_55
*589 FILLER_0_15_57
*590 FILLER_0_15_69
*591 FILLER_0_15_81
*592 FILLER_0_15_93
*593 FILLER_0_16_109
*594 FILLER_0_16_121
*595 FILLER_0_16_133
*596 FILLER_0_16_139
*597 FILLER_0_16_141
*598 FILLER_0_16_15
*599 FILLER_0_16_153
*600 FILLER_0_16_165
*601 FILLER_0_16_177
*602 FILLER_0_16_189
*603 FILLER_0_16_195
*604 FILLER_0_16_197
*605 FILLER_0_16_209
*606 FILLER_0_16_221
*607 FILLER_0_16_233
*608 FILLER_0_16_245
*609 FILLER_0_16_251
*610 FILLER_0_16_253
*611 FILLER_0_16_265
*612 FILLER_0_16_27
*613 FILLER_0_16_277
*614 FILLER_0_16_289
*615 FILLER_0_16_29
*616 FILLER_0_16_3
*617 FILLER_0_16_301
*618 FILLER_0_16_307
*619 FILLER_0_16_309
*620 FILLER_0_16_321
*621 FILLER_0_16_333
*622 FILLER_0_16_41
*623 FILLER_0_16_53
*624 FILLER_0_16_65
*625 FILLER_0_16_77
*626 FILLER_0_16_83
*627 FILLER_0_16_85
*628 FILLER_0_16_97
*629 FILLER_0_17_105
*630 FILLER_0_17_111
*631 FILLER_0_17_113
*632 FILLER_0_17_125
*633 FILLER_0_17_137
*634 FILLER_0_17_149
*635 FILLER_0_17_15
*636 FILLER_0_17_161
*637 FILLER_0_17_167
*638 FILLER_0_17_169
*639 FILLER_0_17_181
*640 FILLER_0_17_193
*641 FILLER_0_17_205
*642 FILLER_0_17_217
*643 FILLER_0_17_223
*644 FILLER_0_17_225
*645 FILLER_0_17_237
*646 FILLER_0_17_249
*647 FILLER_0_17_261
*648 FILLER_0_17_27
*649 FILLER_0_17_273
*650 FILLER_0_17_279
*651 FILLER_0_17_281
*652 FILLER_0_17_293
*653 FILLER_0_17_3
*654 FILLER_0_17_305
*655 FILLER_0_17_317
*656 FILLER_0_17_329
*657 FILLER_0_17_39
*658 FILLER_0_17_51
*659 FILLER_0_17_55
*660 FILLER_0_17_57
*661 FILLER_0_17_69
*662 FILLER_0_17_81
*663 FILLER_0_17_93
*664 FILLER_0_18_109
*665 FILLER_0_18_121
*666 FILLER_0_18_133
*667 FILLER_0_18_139
*668 FILLER_0_18_141
*669 FILLER_0_18_15
*670 FILLER_0_18_153
*671 FILLER_0_18_165
*672 FILLER_0_18_177
*673 FILLER_0_18_189
*674 FILLER_0_18_195
*675 FILLER_0_18_197
*676 FILLER_0_18_209
*677 FILLER_0_18_221
*678 FILLER_0_18_233
*679 FILLER_0_18_245
*680 FILLER_0_18_251
*681 FILLER_0_18_253
*682 FILLER_0_18_265
*683 FILLER_0_18_27
*684 FILLER_0_18_277
*685 FILLER_0_18_289
*686 FILLER_0_18_29
*687 FILLER_0_18_3
*688 FILLER_0_18_301
*689 FILLER_0_18_307
*690 FILLER_0_18_309
*691 FILLER_0_18_321
*692 FILLER_0_18_333
*693 FILLER_0_18_41
*694 FILLER_0_18_53
*695 FILLER_0_18_65
*696 FILLER_0_18_77
*697 FILLER_0_18_83
*698 FILLER_0_18_85
*699 FILLER_0_18_97
*700 FILLER_0_19_105
*701 FILLER_0_19_111
*702 FILLER_0_19_113
*703 FILLER_0_19_125
*704 FILLER_0_19_137
*705 FILLER_0_19_149
*706 FILLER_0_19_15
*707 FILLER_0_19_161
*708 FILLER_0_19_167
*709 FILLER_0_19_169
*710 FILLER_0_19_181
*711 FILLER_0_19_193
*712 FILLER_0_19_205
*713 FILLER_0_19_217
*714 FILLER_0_19_223
*715 FILLER_0_19_225
*716 FILLER_0_19_237
*717 FILLER_0_19_249
*718 FILLER_0_19_261
*719 FILLER_0_19_27
*720 FILLER_0_19_273
*721 FILLER_0_19_279
*722 FILLER_0_19_281
*723 FILLER_0_19_293
*724 FILLER_0_19_3
*725 FILLER_0_19_305
*726 FILLER_0_19_317
*727 FILLER_0_19_329
*728 FILLER_0_19_39
*729 FILLER_0_19_51
*730 FILLER_0_19_55
*731 FILLER_0_19_57
*732 FILLER_0_19_69
*733 FILLER_0_19_81
*734 FILLER_0_19_93
*735 FILLER_0_1_105
*736 FILLER_0_1_111
*737 FILLER_0_1_113
*738 FILLER_0_1_125
*739 FILLER_0_1_137
*740 FILLER_0_1_149
*741 FILLER_0_1_15
*742 FILLER_0_1_161
*743 FILLER_0_1_167
*744 FILLER_0_1_169
*745 FILLER_0_1_181
*746 FILLER_0_1_193
*747 FILLER_0_1_205
*748 FILLER_0_1_217
*749 FILLER_0_1_223
*750 FILLER_0_1_225
*751 FILLER_0_1_237
*752 FILLER_0_1_249
*753 FILLER_0_1_261
*754 FILLER_0_1_27
*755 FILLER_0_1_273
*756 FILLER_0_1_279
*757 FILLER_0_1_281
*758 FILLER_0_1_293
*759 FILLER_0_1_3
*760 FILLER_0_1_305
*761 FILLER_0_1_317
*762 FILLER_0_1_329
*763 FILLER_0_1_39
*764 FILLER_0_1_51
*765 FILLER_0_1_55
*766 FILLER_0_1_57
*767 FILLER_0_1_69
*768 FILLER_0_1_81
*769 FILLER_0_1_93
*770 FILLER_0_20_109
*771 FILLER_0_20_121
*772 FILLER_0_20_133
*773 FILLER_0_20_139
*774 FILLER_0_20_141
*775 FILLER_0_20_15
*776 FILLER_0_20_153
*777 FILLER_0_20_165
*778 FILLER_0_20_177
*779 FILLER_0_20_189
*780 FILLER_0_20_195
*781 FILLER_0_20_197
*782 FILLER_0_20_209
*783 FILLER_0_20_221
*784 FILLER_0_20_233
*785 FILLER_0_20_245
*786 FILLER_0_20_251
*787 FILLER_0_20_253
*788 FILLER_0_20_265
*789 FILLER_0_20_27
*790 FILLER_0_20_277
*791 FILLER_0_20_289
*792 FILLER_0_20_29
*793 FILLER_0_20_3
*794 FILLER_0_20_301
*795 FILLER_0_20_307
*796 FILLER_0_20_309
*797 FILLER_0_20_321
*798 FILLER_0_20_333
*799 FILLER_0_20_41
*800 FILLER_0_20_53
*801 FILLER_0_20_65
*802 FILLER_0_20_77
*803 FILLER_0_20_83
*804 FILLER_0_20_85
*805 FILLER_0_20_97
*806 FILLER_0_21_105
*807 FILLER_0_21_111
*808 FILLER_0_21_113
*809 FILLER_0_21_125
*810 FILLER_0_21_137
*811 FILLER_0_21_149
*812 FILLER_0_21_15
*813 FILLER_0_21_161
*814 FILLER_0_21_167
*815 FILLER_0_21_169
*816 FILLER_0_21_181
*817 FILLER_0_21_193
*818 FILLER_0_21_205
*819 FILLER_0_21_217
*820 FILLER_0_21_223
*821 FILLER_0_21_225
*822 FILLER_0_21_237
*823 FILLER_0_21_249
*824 FILLER_0_21_261
*825 FILLER_0_21_27
*826 FILLER_0_21_273
*827 FILLER_0_21_279
*828 FILLER_0_21_281
*829 FILLER_0_21_293
*830 FILLER_0_21_3
*831 FILLER_0_21_302
*832 FILLER_0_21_314
*833 FILLER_0_21_326
*834 FILLER_0_21_334
*835 FILLER_0_21_39
*836 FILLER_0_21_51
*837 FILLER_0_21_55
*838 FILLER_0_21_57
*839 FILLER_0_21_69
*840 FILLER_0_21_81
*841 FILLER_0_21_93
*842 FILLER_0_22_109
*843 FILLER_0_22_121
*844 FILLER_0_22_133
*845 FILLER_0_22_139
*846 FILLER_0_22_141
*847 FILLER_0_22_15
*848 FILLER_0_22_153
*849 FILLER_0_22_165
*850 FILLER_0_22_177
*851 FILLER_0_22_189
*852 FILLER_0_22_195
*853 FILLER_0_22_197
*854 FILLER_0_22_209
*855 FILLER_0_22_221
*856 FILLER_0_22_230
*857 FILLER_0_22_238
*858 FILLER_0_22_248
*859 FILLER_0_22_27
*860 FILLER_0_22_276
*861 FILLER_0_22_29
*862 FILLER_0_22_3
*863 FILLER_0_22_309
*864 FILLER_0_22_321
*865 FILLER_0_22_333
*866 FILLER_0_22_41
*867 FILLER_0_22_53
*868 FILLER_0_22_65
*869 FILLER_0_22_77
*870 FILLER_0_22_83
*871 FILLER_0_22_85
*872 FILLER_0_22_97
*873 FILLER_0_23_105
*874 FILLER_0_23_111
*875 FILLER_0_23_113
*876 FILLER_0_23_125
*877 FILLER_0_23_137
*878 FILLER_0_23_149
*879 FILLER_0_23_15
*880 FILLER_0_23_161
*881 FILLER_0_23_167
*882 FILLER_0_23_169
*883 FILLER_0_23_181
*884 FILLER_0_23_193
*885 FILLER_0_23_205
*886 FILLER_0_23_217
*887 FILLER_0_23_223
*888 FILLER_0_23_248
*889 FILLER_0_23_256
*890 FILLER_0_23_260
*891 FILLER_0_23_27
*892 FILLER_0_23_272
*893 FILLER_0_23_281
*894 FILLER_0_23_293
*895 FILLER_0_23_3
*896 FILLER_0_23_301
*897 FILLER_0_23_307
*898 FILLER_0_23_311
*899 FILLER_0_23_39
*900 FILLER_0_23_51
*901 FILLER_0_23_55
*902 FILLER_0_23_57
*903 FILLER_0_23_69
*904 FILLER_0_23_81
*905 FILLER_0_23_93
*906 FILLER_0_24_109
*907 FILLER_0_24_121
*908 FILLER_0_24_133
*909 FILLER_0_24_139
*910 FILLER_0_24_141
*911 FILLER_0_24_15
*912 FILLER_0_24_153
*913 FILLER_0_24_165
*914 FILLER_0_24_177
*915 FILLER_0_24_189
*916 FILLER_0_24_195
*917 FILLER_0_24_197
*918 FILLER_0_24_209
*919 FILLER_0_24_236
*920 FILLER_0_24_251
*921 FILLER_0_24_27
*922 FILLER_0_24_281
*923 FILLER_0_24_29
*924 FILLER_0_24_292
*925 FILLER_0_24_3
*926 FILLER_0_24_314
*927 FILLER_0_24_326
*928 FILLER_0_24_334
*929 FILLER_0_24_41
*930 FILLER_0_24_53
*931 FILLER_0_24_65
*932 FILLER_0_24_77
*933 FILLER_0_24_83
*934 FILLER_0_24_85
*935 FILLER_0_24_97
*936 FILLER_0_25_105
*937 FILLER_0_25_111
*938 FILLER_0_25_113
*939 FILLER_0_25_125
*940 FILLER_0_25_137
*941 FILLER_0_25_149
*942 FILLER_0_25_15
*943 FILLER_0_25_161
*944 FILLER_0_25_169
*945 FILLER_0_25_175
*946 FILLER_0_25_207
*947 FILLER_0_25_218
*948 FILLER_0_25_225
*949 FILLER_0_25_229
*950 FILLER_0_25_244
*951 FILLER_0_25_256
*952 FILLER_0_25_261
*953 FILLER_0_25_27
*954 FILLER_0_25_273
*955 FILLER_0_25_279
*956 FILLER_0_25_289
*957 FILLER_0_25_297
*958 FILLER_0_25_3
*959 FILLER_0_25_302
*960 FILLER_0_25_317
*961 FILLER_0_25_324
*962 FILLER_0_25_332
*963 FILLER_0_25_39
*964 FILLER_0_25_51
*965 FILLER_0_25_55
*966 FILLER_0_25_57
*967 FILLER_0_25_69
*968 FILLER_0_25_81
*969 FILLER_0_25_93
*970 FILLER_0_26_109
*971 FILLER_0_26_121
*972 FILLER_0_26_128
*973 FILLER_0_26_141
*974 FILLER_0_26_15
*975 FILLER_0_26_153
*976 FILLER_0_26_161
*977 FILLER_0_26_182
*978 FILLER_0_26_186
*979 FILLER_0_26_193
*980 FILLER_0_26_197
*981 FILLER_0_26_201
*982 FILLER_0_26_205
*983 FILLER_0_26_217
*984 FILLER_0_26_228
*985 FILLER_0_26_249
*986 FILLER_0_26_27
*987 FILLER_0_26_273
*988 FILLER_0_26_29
*989 FILLER_0_26_3
*990 FILLER_0_26_307
*991 FILLER_0_26_309
*992 FILLER_0_26_332
*993 FILLER_0_26_41
*994 FILLER_0_26_53
*995 FILLER_0_26_65
*996 FILLER_0_26_77
*997 FILLER_0_26_83
*998 FILLER_0_26_85
*999 FILLER_0_26_97
*1000 FILLER_0_27_105
*1001 FILLER_0_27_111
*1002 FILLER_0_27_113
*1003 FILLER_0_27_135
*1004 FILLER_0_27_15
*1005 FILLER_0_27_166
*1006 FILLER_0_27_169
*1007 FILLER_0_27_184
*1008 FILLER_0_27_196
*1009 FILLER_0_27_212
*1010 FILLER_0_27_246
*1011 FILLER_0_27_258
*1012 FILLER_0_27_262
*1013 FILLER_0_27_27
*1014 FILLER_0_27_276
*1015 FILLER_0_27_287
*1016 FILLER_0_27_293
*1017 FILLER_0_27_3
*1018 FILLER_0_27_305
*1019 FILLER_0_27_320
*1020 FILLER_0_27_325
*1021 FILLER_0_27_333
*1022 FILLER_0_27_39
*1023 FILLER_0_27_51
*1024 FILLER_0_27_55
*1025 FILLER_0_27_57
*1026 FILLER_0_27_69
*1027 FILLER_0_27_81
*1028 FILLER_0_27_93
*1029 FILLER_0_28_109
*1030 FILLER_0_28_124
*1031 FILLER_0_28_136
*1032 FILLER_0_28_141
*1033 FILLER_0_28_15
*1034 FILLER_0_28_153
*1035 FILLER_0_28_161
*1036 FILLER_0_28_169
*1037 FILLER_0_28_181
*1038 FILLER_0_28_193
*1039 FILLER_0_28_213
*1040 FILLER_0_28_225
*1041 FILLER_0_28_232
*1042 FILLER_0_28_244
*1043 FILLER_0_28_253
*1044 FILLER_0_28_27
*1045 FILLER_0_28_29
*1046 FILLER_0_28_3
*1047 FILLER_0_28_305
*1048 FILLER_0_28_309
*1049 FILLER_0_28_332
*1050 FILLER_0_28_41
*1051 FILLER_0_28_53
*1052 FILLER_0_28_65
*1053 FILLER_0_28_77
*1054 FILLER_0_28_83
*1055 FILLER_0_28_85
*1056 FILLER_0_28_97
*1057 FILLER_0_29_102
*1058 FILLER_0_29_110
*1059 FILLER_0_29_116
*1060 FILLER_0_29_120
*1061 FILLER_0_29_124
*1062 FILLER_0_29_132
*1063 FILLER_0_29_148
*1064 FILLER_0_29_15
*1065 FILLER_0_29_154
*1066 FILLER_0_29_167
*1067 FILLER_0_29_169
*1068 FILLER_0_29_195
*1069 FILLER_0_29_216
*1070 FILLER_0_29_256
*1071 FILLER_0_29_265
*1072 FILLER_0_29_27
*1073 FILLER_0_29_271
*1074 FILLER_0_29_275
*1075 FILLER_0_29_279
*1076 FILLER_0_29_281
*1077 FILLER_0_29_287
*1078 FILLER_0_29_291
*1079 FILLER_0_29_295
*1080 FILLER_0_29_3
*1081 FILLER_0_29_307
*1082 FILLER_0_29_334
*1083 FILLER_0_29_39
*1084 FILLER_0_29_51
*1085 FILLER_0_29_55
*1086 FILLER_0_29_57
*1087 FILLER_0_29_69
*1088 FILLER_0_29_81
*1089 FILLER_0_29_87
*1090 FILLER_0_29_91
*1091 FILLER_0_2_109
*1092 FILLER_0_2_121
*1093 FILLER_0_2_133
*1094 FILLER_0_2_139
*1095 FILLER_0_2_141
*1096 FILLER_0_2_15
*1097 FILLER_0_2_153
*1098 FILLER_0_2_165
*1099 FILLER_0_2_177
*1100 FILLER_0_2_189
*1101 FILLER_0_2_195
*1102 FILLER_0_2_197
*1103 FILLER_0_2_209
*1104 FILLER_0_2_221
*1105 FILLER_0_2_233
*1106 FILLER_0_2_245
*1107 FILLER_0_2_251
*1108 FILLER_0_2_253
*1109 FILLER_0_2_265
*1110 FILLER_0_2_27
*1111 FILLER_0_2_277
*1112 FILLER_0_2_289
*1113 FILLER_0_2_29
*1114 FILLER_0_2_3
*1115 FILLER_0_2_301
*1116 FILLER_0_2_307
*1117 FILLER_0_2_309
*1118 FILLER_0_2_321
*1119 FILLER_0_2_333
*1120 FILLER_0_2_41
*1121 FILLER_0_2_53
*1122 FILLER_0_2_65
*1123 FILLER_0_2_77
*1124 FILLER_0_2_83
*1125 FILLER_0_2_85
*1126 FILLER_0_2_97
*1127 FILLER_0_30_133
*1128 FILLER_0_30_141
*1129 FILLER_0_30_15
*1130 FILLER_0_30_166
*1131 FILLER_0_30_178
*1132 FILLER_0_30_187
*1133 FILLER_0_30_195
*1134 FILLER_0_30_197
*1135 FILLER_0_30_204
*1136 FILLER_0_30_211
*1137 FILLER_0_30_219
*1138 FILLER_0_30_226
*1139 FILLER_0_30_233
*1140 FILLER_0_30_237
*1141 FILLER_0_30_245
*1142 FILLER_0_30_27
*1143 FILLER_0_30_281
*1144 FILLER_0_30_29
*1145 FILLER_0_30_3
*1146 FILLER_0_30_303
*1147 FILLER_0_30_307
*1148 FILLER_0_30_309
*1149 FILLER_0_30_321
*1150 FILLER_0_30_333
*1151 FILLER_0_30_41
*1152 FILLER_0_30_53
*1153 FILLER_0_30_65
*1154 FILLER_0_30_71
*1155 FILLER_0_30_75
*1156 FILLER_0_30_83
*1157 FILLER_0_30_85
*1158 FILLER_0_31_110
*1159 FILLER_0_31_113
*1160 FILLER_0_31_125
*1161 FILLER_0_31_130
*1162 FILLER_0_31_142
*1163 FILLER_0_31_15
*1164 FILLER_0_31_150
*1165 FILLER_0_31_154
*1166 FILLER_0_31_166
*1167 FILLER_0_31_169
*1168 FILLER_0_31_194
*1169 FILLER_0_31_202
*1170 FILLER_0_31_206
*1171 FILLER_0_31_215
*1172 FILLER_0_31_223
*1173 FILLER_0_31_245
*1174 FILLER_0_31_261
*1175 FILLER_0_31_27
*1176 FILLER_0_31_273
*1177 FILLER_0_31_279
*1178 FILLER_0_31_284
*1179 FILLER_0_31_299
*1180 FILLER_0_31_3
*1181 FILLER_0_31_312
*1182 FILLER_0_31_334
*1183 FILLER_0_31_39
*1184 FILLER_0_31_51
*1185 FILLER_0_31_55
*1186 FILLER_0_31_57
*1187 FILLER_0_31_82
*1188 FILLER_0_31_91
*1189 FILLER_0_31_98
*1190 FILLER_0_32_106
*1191 FILLER_0_32_125
*1192 FILLER_0_32_15
*1193 FILLER_0_32_161
*1194 FILLER_0_32_176
*1195 FILLER_0_32_184
*1196 FILLER_0_32_190
*1197 FILLER_0_32_227
*1198 FILLER_0_32_242
*1199 FILLER_0_32_250
*1200 FILLER_0_32_253
*1201 FILLER_0_32_261
*1202 FILLER_0_32_267
*1203 FILLER_0_32_27
*1204 FILLER_0_32_271
*1205 FILLER_0_32_29
*1206 FILLER_0_32_3
*1207 FILLER_0_32_300
*1208 FILLER_0_32_309
*1209 FILLER_0_32_315
*1210 FILLER_0_32_327
*1211 FILLER_0_32_59
*1212 FILLER_0_32_63
*1213 FILLER_0_32_67
*1214 FILLER_0_32_79
*1215 FILLER_0_33_104
*1216 FILLER_0_33_122
*1217 FILLER_0_33_130
*1218 FILLER_0_33_134
*1219 FILLER_0_33_140
*1220 FILLER_0_33_144
*1221 FILLER_0_33_15
*1222 FILLER_0_33_155
*1223 FILLER_0_33_174
*1224 FILLER_0_33_202
*1225 FILLER_0_33_219
*1226 FILLER_0_33_223
*1227 FILLER_0_33_225
*1228 FILLER_0_33_249
*1229 FILLER_0_33_267
*1230 FILLER_0_33_27
*1231 FILLER_0_33_271
*1232 FILLER_0_33_281
*1233 FILLER_0_33_289
*1234 FILLER_0_33_295
*1235 FILLER_0_33_299
*1236 FILLER_0_33_3
*1237 FILLER_0_33_323
*1238 FILLER_0_33_328
*1239 FILLER_0_33_334
*1240 FILLER_0_33_39
*1241 FILLER_0_33_49
*1242 FILLER_0_33_55
*1243 FILLER_0_33_57
*1244 FILLER_0_33_63
*1245 FILLER_0_33_69
*1246 FILLER_0_33_76
*1247 FILLER_0_33_91
*1248 FILLER_0_33_99
*1249 FILLER_0_34_114
*1250 FILLER_0_34_141
*1251 FILLER_0_34_15
*1252 FILLER_0_34_156
*1253 FILLER_0_34_160
*1254 FILLER_0_34_170
*1255 FILLER_0_34_180
*1256 FILLER_0_34_192
*1257 FILLER_0_34_197
*1258 FILLER_0_34_201
*1259 FILLER_0_34_205
*1260 FILLER_0_34_223
*1261 FILLER_0_34_231
*1262 FILLER_0_34_243
*1263 FILLER_0_34_251
*1264 FILLER_0_34_259
*1265 FILLER_0_34_265
*1266 FILLER_0_34_27
*1267 FILLER_0_34_277
*1268 FILLER_0_34_286
*1269 FILLER_0_34_29
*1270 FILLER_0_34_295
*1271 FILLER_0_34_3
*1272 FILLER_0_34_307
*1273 FILLER_0_34_312
*1274 FILLER_0_34_319
*1275 FILLER_0_34_327
*1276 FILLER_0_34_41
*1277 FILLER_0_34_51
*1278 FILLER_0_34_59
*1279 FILLER_0_34_75
*1280 FILLER_0_34_83
*1281 FILLER_0_35_104
*1282 FILLER_0_35_110
*1283 FILLER_0_35_116
*1284 FILLER_0_35_124
*1285 FILLER_0_35_129
*1286 FILLER_0_35_141
*1287 FILLER_0_35_15
*1288 FILLER_0_35_156
*1289 FILLER_0_35_163
*1290 FILLER_0_35_167
*1291 FILLER_0_35_169
*1292 FILLER_0_35_173
*1293 FILLER_0_35_177
*1294 FILLER_0_35_189
*1295 FILLER_0_35_195
*1296 FILLER_0_35_220
*1297 FILLER_0_35_243
*1298 FILLER_0_35_247
*1299 FILLER_0_35_27
*1300 FILLER_0_35_278
*1301 FILLER_0_35_281
*1302 FILLER_0_35_3
*1303 FILLER_0_35_320
*1304 FILLER_0_35_329
*1305 FILLER_0_35_35
*1306 FILLER_0_35_54
*1307 FILLER_0_35_60
*1308 FILLER_0_35_69
*1309 FILLER_0_35_81
*1310 FILLER_0_35_93
*1311 FILLER_0_36_122
*1312 FILLER_0_36_137
*1313 FILLER_0_36_141
*1314 FILLER_0_36_15
*1315 FILLER_0_36_153
*1316 FILLER_0_36_184
*1317 FILLER_0_36_192
*1318 FILLER_0_36_202
*1319 FILLER_0_36_214
*1320 FILLER_0_36_225
*1321 FILLER_0_36_233
*1322 FILLER_0_36_237
*1323 FILLER_0_36_245
*1324 FILLER_0_36_251
*1325 FILLER_0_36_253
*1326 FILLER_0_36_27
*1327 FILLER_0_36_280
*1328 FILLER_0_36_286
*1329 FILLER_0_36_29
*1330 FILLER_0_36_291
*1331 FILLER_0_36_296
*1332 FILLER_0_36_3
*1333 FILLER_0_36_305
*1334 FILLER_0_36_309
*1335 FILLER_0_36_315
*1336 FILLER_0_36_319
*1337 FILLER_0_36_327
*1338 FILLER_0_36_88
*1339 FILLER_0_36_95
*1340 FILLER_0_37_108
*1341 FILLER_0_37_116
*1342 FILLER_0_37_120
*1343 FILLER_0_37_132
*1344 FILLER_0_37_138
*1345 FILLER_0_37_15
*1346 FILLER_0_37_158
*1347 FILLER_0_37_166
*1348 FILLER_0_37_169
*1349 FILLER_0_37_180
*1350 FILLER_0_37_187
*1351 FILLER_0_37_200
*1352 FILLER_0_37_222
*1353 FILLER_0_37_27
*1354 FILLER_0_37_271
*1355 FILLER_0_37_279
*1356 FILLER_0_37_281
*1357 FILLER_0_37_3
*1358 FILLER_0_37_324
*1359 FILLER_0_37_332
*1360 FILLER_0_37_35
*1361 FILLER_0_37_47
*1362 FILLER_0_37_55
*1363 FILLER_0_37_57
*1364 FILLER_0_37_65
*1365 FILLER_0_37_70
*1366 FILLER_0_37_81
*1367 FILLER_0_37_88
*1368 FILLER_0_37_96
*1369 FILLER_0_38_10
*1370 FILLER_0_38_111
*1371 FILLER_0_38_117
*1372 FILLER_0_38_125
*1373 FILLER_0_38_137
*1374 FILLER_0_38_14
*1375 FILLER_0_38_145
*1376 FILLER_0_38_155
*1377 FILLER_0_38_167
*1378 FILLER_0_38_173
*1379 FILLER_0_38_18
*1380 FILLER_0_38_193
*1381 FILLER_0_38_197
*1382 FILLER_0_38_205
*1383 FILLER_0_38_217
*1384 FILLER_0_38_22
*1385 FILLER_0_38_223
*1386 FILLER_0_38_225
*1387 FILLER_0_38_233
*1388 FILLER_0_38_239
*1389 FILLER_0_38_251
*1390 FILLER_0_38_253
*1391 FILLER_0_38_259
*1392 FILLER_0_38_274
*1393 FILLER_0_38_281
*1394 FILLER_0_38_294
*1395 FILLER_0_38_298
*1396 FILLER_0_38_302
*1397 FILLER_0_38_313
*1398 FILLER_0_38_319
*1399 FILLER_0_38_32
*1400 FILLER_0_38_331
*1401 FILLER_0_38_38
*1402 FILLER_0_38_42
*1403 FILLER_0_38_46
*1404 FILLER_0_38_50
*1405 FILLER_0_38_54
*1406 FILLER_0_38_57
*1407 FILLER_0_38_6
*1408 FILLER_0_38_62
*1409 FILLER_0_38_66
*1410 FILLER_0_38_70
*1411 FILLER_0_38_85
*1412 FILLER_0_38_92
*1413 FILLER_0_38_96
*1414 FILLER_0_3_105
*1415 FILLER_0_3_111
*1416 FILLER_0_3_113
*1417 FILLER_0_3_125
*1418 FILLER_0_3_137
*1419 FILLER_0_3_149
*1420 FILLER_0_3_15
*1421 FILLER_0_3_161
*1422 FILLER_0_3_167
*1423 FILLER_0_3_169
*1424 FILLER_0_3_181
*1425 FILLER_0_3_193
*1426 FILLER_0_3_205
*1427 FILLER_0_3_217
*1428 FILLER_0_3_223
*1429 FILLER_0_3_225
*1430 FILLER_0_3_237
*1431 FILLER_0_3_249
*1432 FILLER_0_3_261
*1433 FILLER_0_3_27
*1434 FILLER_0_3_273
*1435 FILLER_0_3_279
*1436 FILLER_0_3_281
*1437 FILLER_0_3_293
*1438 FILLER_0_3_3
*1439 FILLER_0_3_305
*1440 FILLER_0_3_317
*1441 FILLER_0_3_329
*1442 FILLER_0_3_39
*1443 FILLER_0_3_51
*1444 FILLER_0_3_55
*1445 FILLER_0_3_57
*1446 FILLER_0_3_69
*1447 FILLER_0_3_81
*1448 FILLER_0_3_93
*1449 FILLER_0_4_109
*1450 FILLER_0_4_121
*1451 FILLER_0_4_133
*1452 FILLER_0_4_139
*1453 FILLER_0_4_141
*1454 FILLER_0_4_15
*1455 FILLER_0_4_153
*1456 FILLER_0_4_165
*1457 FILLER_0_4_177
*1458 FILLER_0_4_189
*1459 FILLER_0_4_195
*1460 FILLER_0_4_197
*1461 FILLER_0_4_209
*1462 FILLER_0_4_221
*1463 FILLER_0_4_233
*1464 FILLER_0_4_245
*1465 FILLER_0_4_251
*1466 FILLER_0_4_253
*1467 FILLER_0_4_265
*1468 FILLER_0_4_27
*1469 FILLER_0_4_277
*1470 FILLER_0_4_289
*1471 FILLER_0_4_29
*1472 FILLER_0_4_3
*1473 FILLER_0_4_301
*1474 FILLER_0_4_307
*1475 FILLER_0_4_309
*1476 FILLER_0_4_321
*1477 FILLER_0_4_333
*1478 FILLER_0_4_41
*1479 FILLER_0_4_53
*1480 FILLER_0_4_65
*1481 FILLER_0_4_77
*1482 FILLER_0_4_83
*1483 FILLER_0_4_85
*1484 FILLER_0_4_97
*1485 FILLER_0_5_105
*1486 FILLER_0_5_111
*1487 FILLER_0_5_113
*1488 FILLER_0_5_125
*1489 FILLER_0_5_137
*1490 FILLER_0_5_149
*1491 FILLER_0_5_15
*1492 FILLER_0_5_161
*1493 FILLER_0_5_167
*1494 FILLER_0_5_169
*1495 FILLER_0_5_181
*1496 FILLER_0_5_193
*1497 FILLER_0_5_205
*1498 FILLER_0_5_217
*1499 FILLER_0_5_223
*1500 FILLER_0_5_225
*1501 FILLER_0_5_237
*1502 FILLER_0_5_249
*1503 FILLER_0_5_261
*1504 FILLER_0_5_27
*1505 FILLER_0_5_273
*1506 FILLER_0_5_279
*1507 FILLER_0_5_281
*1508 FILLER_0_5_293
*1509 FILLER_0_5_3
*1510 FILLER_0_5_305
*1511 FILLER_0_5_317
*1512 FILLER_0_5_329
*1513 FILLER_0_5_39
*1514 FILLER_0_5_51
*1515 FILLER_0_5_55
*1516 FILLER_0_5_57
*1517 FILLER_0_5_69
*1518 FILLER_0_5_81
*1519 FILLER_0_5_93
*1520 FILLER_0_6_109
*1521 FILLER_0_6_121
*1522 FILLER_0_6_133
*1523 FILLER_0_6_139
*1524 FILLER_0_6_141
*1525 FILLER_0_6_15
*1526 FILLER_0_6_153
*1527 FILLER_0_6_165
*1528 FILLER_0_6_177
*1529 FILLER_0_6_189
*1530 FILLER_0_6_195
*1531 FILLER_0_6_197
*1532 FILLER_0_6_209
*1533 FILLER_0_6_221