*SPEF "ieee 1481-1999"
*DESIGN "tt_um_Uart_Transciver"
*DATE "10:20:52 Friday April 19, 2024"
*VENDOR "The OpenROAD Project"
*PROGRAM "OpenROAD"
*VERSION "0889970d1790a2617e69f253221b8bd7626e51dc"
*DESIGN_FLOW "NAME_SCOPE LOCAL" "PIN_CAP NONE"
*DIVIDER /
*DELIMITER :
*BUS_DELIMITER []
*T_UNIT 1 NS
*C_UNIT 1 PF
*R_UNIT 1 OHM
*L_UNIT 1 HENRY

*NAME_MAP
*3 clk
*4 ena
*5 rst_n
*6 ui_in[0]
*7 ui_in[1]
*8 ui_in[2]
*9 ui_in[3]
*10 ui_in[4]
*11 ui_in[5]
*12 ui_in[6]
*13 ui_in[7]
*14 uio_in[0]
*15 uio_in[1]
*16 uio_in[2]
*17 uio_in[3]
*18 uio_in[4]
*19 uio_in[5]
*20 uio_in[6]
*21 uio_in[7]
*22 net18
*23 net19
*24 net20
*25 net26
*26 net27
*27 net28
*28 net29
*29 net30
*30 net21
*31 net22
*32 net23
*33 uio_out[3]
*34 uio_out[4]
*35 uio_out[5]
*36 net24
*37 net25
*38 uo_out[0]
*39 uo_out[1]
*40 uo_out[2]
*41 uo_out[3]
*42 uo_out[4]
*43 uo_out[5]
*44 uo_out[6]
*45 uo_out[7]
*46 RX_TX\.DB\.PB_cnt\[0\]
*47 RX_TX\.DB\.PB_cnt\[10\]
*48 RX_TX\.DB\.PB_cnt\[11\]
*49 RX_TX\.DB\.PB_cnt\[12\]
*50 RX_TX\.DB\.PB_cnt\[13\]
*51 RX_TX\.DB\.PB_cnt\[14\]
*52 RX_TX\.DB\.PB_cnt\[15\]
*53 RX_TX\.DB\.PB_cnt\[16\]
*54 RX_TX\.DB\.PB_cnt\[17\]
*55 RX_TX\.DB\.PB_cnt\[18\]
*56 RX_TX\.DB\.PB_cnt\[19\]
*57 RX_TX\.DB\.PB_cnt\[1\]
*58 RX_TX\.DB\.PB_cnt\[20\]
*59 RX_TX\.DB\.PB_cnt\[21\]
*60 RX_TX\.DB\.PB_cnt\[22\]
*61 RX_TX\.DB\.PB_cnt\[23\]
*62 RX_TX\.DB\.PB_cnt\[24\]
*63 RX_TX\.DB\.PB_cnt\[25\]
*64 RX_TX\.DB\.PB_cnt\[26\]
*65 RX_TX\.DB\.PB_cnt\[2\]
*66 RX_TX\.DB\.PB_cnt\[3\]
*67 RX_TX\.DB\.PB_cnt\[4\]
*68 RX_TX\.DB\.PB_cnt\[5\]
*69 RX_TX\.DB\.PB_cnt\[6\]
*70 RX_TX\.DB\.PB_cnt\[7\]
*71 RX_TX\.DB\.PB_cnt\[8\]
*72 RX_TX\.DB\.PB_cnt\[9\]
*73 RX_TX\.DB\.PB_state
*74 RX_TX\.DB\.PB_sync_0
*75 RX_TX\.DB\.PB_sync_1
*76 RX_TX\.T1\.TxD
*77 RX_TX\.T1\.baudrate_counter\[0\]
*78 RX_TX\.T1\.baudrate_counter\[10\]
*79 RX_TX\.T1\.baudrate_counter\[11\]
*80 RX_TX\.T1\.baudrate_counter\[12\]
*81 RX_TX\.T1\.baudrate_counter\[1\]
*82 RX_TX\.T1\.baudrate_counter\[2\]
*83 RX_TX\.T1\.baudrate_counter\[3\]
*84 RX_TX\.T1\.baudrate_counter\[4\]
*85 RX_TX\.T1\.baudrate_counter\[5\]
*86 RX_TX\.T1\.baudrate_counter\[6\]
*87 RX_TX\.T1\.baudrate_counter\[7\]
*88 RX_TX\.T1\.baudrate_counter\[8\]
*89 RX_TX\.T1\.baudrate_counter\[9\]
*90 RX_TX\.T1\.bit_counter\[0\]
*91 RX_TX\.T1\.bit_counter\[1\]
*92 RX_TX\.T1\.bit_counter\[2\]
*93 RX_TX\.T1\.bit_counter\[3\]
*94 RX_TX\.T1\.clear
*95 RX_TX\.T1\.load
*96 RX_TX\.T1\.next_state
*97 RX_TX\.T1\.shift
*98 RX_TX\.T1\.shift_right_reg\[0\]
*99 RX_TX\.T1\.shift_right_reg\[1\]
*100 RX_TX\.T1\.shift_right_reg\[2\]
*101 RX_TX\.T1\.shift_right_reg\[3\]
*102 RX_TX\.T1\.shift_right_reg\[4\]
*103 RX_TX\.T1\.shift_right_reg\[5\]
*104 RX_TX\.T1\.shift_right_reg\[6\]
*105 RX_TX\.T1\.shift_right_reg\[7\]
*106 RX_TX\.T1\.shift_right_reg\[8\]
*107 RX_TX\.T1\.shift_right_reg\[9\]
*108 RX_TX\.T1\.state
*109 RX_TX\.i_uart_rx\.bit_counter\[0\]
*110 RX_TX\.i_uart_rx\.bit_counter\[1\]
*111 RX_TX\.i_uart_rx\.bit_counter\[2\]
*112 RX_TX\.i_uart_rx\.bit_counter\[3\]
*113 RX_TX\.i_uart_rx\.bit_sample
*114 RX_TX\.i_uart_rx\.cycle_counter\[0\]
*115 RX_TX\.i_uart_rx\.cycle_counter\[10\]
*116 RX_TX\.i_uart_rx\.cycle_counter\[11\]
*117 RX_TX\.i_uart_rx\.cycle_counter\[12\]
*118 RX_TX\.i_uart_rx\.cycle_counter\[13\]
*119 RX_TX\.i_uart_rx\.cycle_counter\[1\]
*120 RX_TX\.i_uart_rx\.cycle_counter\[2\]
*121 RX_TX\.i_uart_rx\.cycle_counter\[3\]
*122 RX_TX\.i_uart_rx\.cycle_counter\[4\]
*123 RX_TX\.i_uart_rx\.cycle_counter\[5\]
*124 RX_TX\.i_uart_rx\.cycle_counter\[6\]
*125 RX_TX\.i_uart_rx\.cycle_counter\[7\]
*126 RX_TX\.i_uart_rx\.cycle_counter\[8\]
*127 RX_TX\.i_uart_rx\.cycle_counter\[9\]
*128 RX_TX\.i_uart_rx\.fsm_state\[0\]
*129 RX_TX\.i_uart_rx\.fsm_state\[1\]
*130 RX_TX\.i_uart_rx\.fsm_state\[2\]
*131 RX_TX\.i_uart_rx\.fsm_state\[3\]
*132 RX_TX\.i_uart_rx\.recieved_data\[0\]
*133 RX_TX\.i_uart_rx\.recieved_data\[1\]
*134 RX_TX\.i_uart_rx\.recieved_data\[2\]
*135 RX_TX\.i_uart_rx\.recieved_data\[3\]
*136 RX_TX\.i_uart_rx\.recieved_data\[4\]
*137 RX_TX\.i_uart_rx\.recieved_data\[5\]
*138 RX_TX\.i_uart_rx\.recieved_data\[6\]
*139 RX_TX\.i_uart_rx\.recieved_data\[7\]
*140 RX_TX\.i_uart_rx\.rxd_reg
*141 RX_TX\.i_uart_rx\.rxd_reg_0
*142 RX_TX\.i_uart_rx\.uart_rx_break
*143 RX_TX\.i_uart_rx\.uart_rx_data\[0\]
*144 RX_TX\.i_uart_rx\.uart_rx_data\[1\]
*145 RX_TX\.i_uart_rx\.uart_rx_data\[2\]
*146 RX_TX\.i_uart_rx\.uart_rx_data\[3\]
*147 RX_TX\.i_uart_rx\.uart_rx_data\[4\]
*148 RX_TX\.i_uart_rx\.uart_rx_data\[5\]
*149 RX_TX\.i_uart_rx\.uart_rx_data\[6\]
*150 RX_TX\.i_uart_rx\.uart_rx_data\[7\]
*151 RX_TX\.i_uart_rx\.uart_rx_valid
*152 _000_
*153 _001_
*154 _002_
*155 _003_
*156 _004_
*157 _005_
*158 _006_
*159 _007_
*160 _008_
*161 _009_
*162 _010_
*163 _011_
*164 _012_
*165 _013_
*166 _014_
*167 _015_
*168 _016_
*169 _017_
*170 _018_
*171 _019_
*172 _020_
*173 _021_
*174 _022_
*175 _023_
*176 _024_
*177 _025_
*178 _026_
*179 _027_
*180 _028_
*181 _029_
*182 _030_
*183 _031_
*184 _032_
*185 _033_
*186 _034_
*187 _035_
*188 _036_
*189 _037_
*190 _038_
*191 _039_
*192 _040_
*193 _041_
*194 _042_
*195 _043_
*196 _044_
*197 _045_
*198 _046_
*199 _047_
*200 _048_
*201 _049_
*202 _050_
*203 _051_
*204 _052_
*205 _053_
*206 _054_
*207 _055_
*208 _056_
*209 _057_
*210 _058_
*211 _059_
*212 _060_
*213 _061_
*214 _062_
*215 _063_
*216 _064_
*217 _065_
*218 _066_
*219 _067_
*220 _068_
*221 _069_
*222 _070_
*223 _071_
*224 _072_
*225 _073_
*226 _074_
*227 _075_
*228 _076_
*229 _077_
*230 _078_
*231 _079_
*232 _080_
*233 _081_
*234 _082_
*235 _083_
*236 _084_
*237 _085_
*238 _086_
*239 _087_
*240 _088_
*241 _089_
*242 _090_
*243 _091_
*244 _092_
*245 _093_
*246 _094_
*247 _095_
*248 _096_
*249 _097_
*250 _098_
*251 _099_
*252 _100_
*253 _101_
*254 _102_
*255 _103_
*256 _104_
*257 _105_
*258 _106_
*259 _107_
*260 _108_
*261 _109_
*262 _110_
*263 _111_
*264 _112_
*265 _113_
*266 _114_
*267 _115_
*268 _116_
*269 _117_
*270 _118_
*271 _119_
*272 _120_
*273 _121_
*274 _122_
*275 _123_
*276 _124_
*277 _125_
*278 _126_
*279 _127_
*280 _128_
*281 _129_
*282 _130_
*283 _131_
*284 _132_
*285 _133_
*286 _134_
*287 _135_
*288 _136_
*289 _137_
*290 _138_
*291 _139_
*292 _140_
*293 _141_
*294 _142_
*295 _143_
*296 _144_
*297 _145_
*298 _146_
*299 _147_
*300 _148_
*301 _149_
*302 _150_
*303 _151_
*304 _152_
*305 _153_
*306 _154_
*307 _155_
*308 _156_
*309 _157_
*310 _158_
*311 _159_
*312 _160_
*313 _161_
*314 _162_
*315 _163_
*316 _164_
*317 _165_
*318 _166_
*319 _167_
*320 _168_
*321 _169_
*322 _170_
*323 _171_
*324 _172_
*325 _173_
*326 _174_
*327 _175_
*328 _176_
*329 _177_
*330 _178_
*331 _179_
*332 _180_
*333 _181_
*334 _182_
*335 _183_
*336 _184_
*337 _185_
*338 _186_
*339 _187_
*340 _188_
*341 _189_
*342 _190_
*343 _191_
*344 _192_
*345 _193_
*346 _194_
*347 _195_
*348 _196_
*349 _197_
*350 _198_
*351 _199_
*352 _200_
*353 _201_
*354 _202_
*355 _203_
*356 _204_
*357 _205_
*358 _206_
*359 _207_
*360 _208_
*361 _209_
*362 _210_
*363 _211_
*364 _212_
*365 _213_
*366 _214_
*367 _215_
*368 _216_
*369 _217_
*370 _218_
*371 _219_
*372 _220_
*373 _221_
*374 _222_
*375 _223_
*376 _224_
*377 _225_
*378 _226_
*379 _227_
*380 _228_
*381 _229_
*382 _230_
*383 _231_
*384 _232_
*385 _233_
*386 _234_
*387 _235_
*388 _236_
*389 _237_
*390 _238_
*391 _239_
*392 _240_
*393 _241_
*394 _242_
*395 _243_
*396 _244_
*397 _245_
*398 _246_
*399 _247_
*400 _248_
*401 _249_
*402 _250_
*403 _251_
*404 _252_
*405 _253_
*406 _254_
*407 _255_
*408 _256_
*409 _257_
*410 _258_
*411 _259_
*412 _260_
*413 _261_
*414 _262_
*415 _263_
*416 _264_
*417 _265_
*418 _266_
*419 _267_
*420 _268_
*421 _269_
*422 _270_
*423 _271_
*424 _272_
*425 _273_
*426 _274_
*427 _275_
*428 _276_
*429 _277_
*430 _278_
*431 _279_
*432 _280_
*433 _281_
*434 _282_
*435 _283_
*436 _284_
*437 _285_
*438 _286_
*439 _287_
*440 _288_
*441 _289_
*442 _290_
*443 _291_
*444 _292_
*445 _293_
*446 _294_
*447 _295_
*448 _296_
*449 _297_
*450 _298_
*451 _299_
*452 _300_
*453 _301_
*454 _302_
*455 _303_
*456 _304_
*457 _305_
*458 _306_
*459 _307_
*460 _308_
*461 _309_
*462 _310_
*463 _311_
*464 _312_
*465 _313_
*466 _314_
*467 _315_
*468 _316_
*469 _317_
*470 _318_
*471 _319_
*472 _320_
*473 _321_
*474 _322_
*475 _323_
*476 _324_
*477 _325_
*478 _326_
*479 _327_
*480 _328_
*481 _329_
*482 _330_
*483 _331_
*484 _332_
*485 _333_
*486 _334_
*487 _335_
*488 _336_
*489 _337_
*490 _338_
*491 _339_
*492 _340_
*493 _341_
*494 _342_
*495 _343_
*496 _344_
*497 _345_
*498 _346_
*499 _347_
*500 _348_
*501 _349_
*502 _350_
*503 _351_
*504 _352_
*505 _353_
*506 _354_
*507 _355_
*508 _356_
*509 _357_
*510 _358_
*511 _359_
*512 _360_
*513 _361_
*514 clknet_0_clk
*515 clknet_3_0__leaf_clk
*516 clknet_3_1__leaf_clk
*517 clknet_3_2__leaf_clk
*518 clknet_3_3__leaf_clk
*519 clknet_3_4__leaf_clk
*520 clknet_3_5__leaf_clk
*521 clknet_3_6__leaf_clk
*522 clknet_3_7__leaf_clk
*523 net1
*524 net10
*525 net100
*526 net101
*527 net102
*528 net103
*529 net104
*530 net105
*531 net106
*532 net107
*533 net108
*534 net109
*535 net11
*536 net110
*537 net111
*538 net112
*539 net113
*540 net114
*541 net115
*542 net116
*543 net117
*544 net118
*545 net119
*546 net12
*547 net120
*548 net13
*549 net14
*550 net15
*551 net16
*552 net17
*553 net2
*554 net3
*555 net31
*556 net32
*557 net33
*558 net34
*559 net35
*560 net36
*561 net37
*562 net38
*563 net39
*564 net4
*565 net40
*566 net41
*567 net42
*568 net43
*569 net44
*570 net45
*571 net46
*572 net47
*573 net48
*574 net49
*575 net5
*576 net50
*577 net51
*578 net52
*579 net53
*580 net54
*581 net55
*582 net56
*583 net57
*584 net58
*585 net59
*586 net6
*587 net60
*588 net61
*589 net62
*590 net63
*591 net64
*592 net65
*593 net66
*594 net67
*595 net68
*596 net69
*597 net7
*598 net70
*599 net71
*600 net72
*601 net73
*602 net74
*603 net75
*604 net76
*605 net77
*606 net78
*607 net79
*608 net8
*609 net80
*610 net81
*611 net82
*612 net83
*613 net84
*614 net85
*615 net86
*616 net87
*617 net88
*618 net89
*619 net9
*620 net90
*621 net91
*622 net92
*623 net93
*624 net94
*625 net95
*626 net96
*627 net97
*628 net98
*629 net99
*630 FILLER_0_0_109
*631 FILLER_0_0_113
*632 FILLER_0_0_125
*633 FILLER_0_0_137
*634 FILLER_0_0_141
*635 FILLER_0_0_15
*636 FILLER_0_0_153
*637 FILLER_0_0_165
*638 FILLER_0_0_169
*639 FILLER_0_0_181
*640 FILLER_0_0_193
*641 FILLER_0_0_197
*642 FILLER_0_0_209
*643 FILLER_0_0_221
*644 FILLER_0_0_225
*645 FILLER_0_0_237
*646 FILLER_0_0_249
*647 FILLER_0_0_253
*648 FILLER_0_0_265
*649 FILLER_0_0_27
*650 FILLER_0_0_277
*651 FILLER_0_0_281
*652 FILLER_0_0_29
*653 FILLER_0_0_293
*654 FILLER_0_0_3
*655 FILLER_0_0_305
*656 FILLER_0_0_309
*657 FILLER_0_0_321
*658 FILLER_0_0_333
*659 FILLER_0_0_41
*660 FILLER_0_0_53
*661 FILLER_0_0_57
*662 FILLER_0_0_69
*663 FILLER_0_0_81
*664 FILLER_0_0_85
*665 FILLER_0_0_97
*666 FILLER_0_10_109
*667 FILLER_0_10_121
*668 FILLER_0_10_133
*669 FILLER_0_10_139
*670 FILLER_0_10_141
*671 FILLER_0_10_15
*672 FILLER_0_10_153
*673 FILLER_0_10_165
*674 FILLER_0_10_177
*675 FILLER_0_10_189
*676 FILLER_0_10_195
*677 FILLER_0_10_197
*678 FILLER_0_10_209
*679 FILLER_0_10_221
*680 FILLER_0_10_233
*681 FILLER_0_10_251
*682 FILLER_0_10_253
*683 FILLER_0_10_265
*684 FILLER_0_10_27
*685 FILLER_0_10_288
*686 FILLER_0_10_29
*687 FILLER_0_10_3
*688 FILLER_0_10_301
*689 FILLER_0_10_307
*690 FILLER_0_10_309
*691 FILLER_0_10_321
*692 FILLER_0_10_333
*693 FILLER_0_10_41
*694 FILLER_0_10_53
*695 FILLER_0_10_65
*696 FILLER_0_10_77
*697 FILLER_0_10_83
*698 FILLER_0_10_85
*699 FILLER_0_10_97
*700 FILLER_0_11_105
*701 FILLER_0_11_111
*702 FILLER_0_11_113
*703 FILLER_0_11_125
*704 FILLER_0_11_137
*705 FILLER_0_11_149
*706 FILLER_0_11_15
*707 FILLER_0_11_161
*708 FILLER_0_11_167
*709 FILLER_0_11_169
*710 FILLER_0_11_181
*711 FILLER_0_11_193
*712 FILLER_0_11_205
*713 FILLER_0_11_217
*714 FILLER_0_11_223
*715 FILLER_0_11_225
*716 FILLER_0_11_233
*717 FILLER_0_11_240
*718 FILLER_0_11_262
*719 FILLER_0_11_27
*720 FILLER_0_11_293
*721 FILLER_0_11_3
*722 FILLER_0_11_327
*723 FILLER_0_11_39
*724 FILLER_0_11_51
*725 FILLER_0_11_55
*726 FILLER_0_11_57
*727 FILLER_0_11_69
*728 FILLER_0_11_81
*729 FILLER_0_11_93
*730 FILLER_0_12_109
*731 FILLER_0_12_121
*732 FILLER_0_12_133
*733 FILLER_0_12_139
*734 FILLER_0_12_141
*735 FILLER_0_12_15
*736 FILLER_0_12_153
*737 FILLER_0_12_165
*738 FILLER_0_12_177
*739 FILLER_0_12_187
*740 FILLER_0_12_195
*741 FILLER_0_12_209
*742 FILLER_0_12_217
*743 FILLER_0_12_224
*744 FILLER_0_12_249
*745 FILLER_0_12_253
*746 FILLER_0_12_27
*747 FILLER_0_12_29
*748 FILLER_0_12_294
*749 FILLER_0_12_3
*750 FILLER_0_12_306
*751 FILLER_0_12_325
*752 FILLER_0_12_333
*753 FILLER_0_12_41
*754 FILLER_0_12_53
*755 FILLER_0_12_65
*756 FILLER_0_12_77
*757 FILLER_0_12_83
*758 FILLER_0_12_85
*759 FILLER_0_12_97
*760 FILLER_0_13_105
*761 FILLER_0_13_111
*762 FILLER_0_13_113
*763 FILLER_0_13_125
*764 FILLER_0_13_137
*765 FILLER_0_13_149
*766 FILLER_0_13_15
*767 FILLER_0_13_161
*768 FILLER_0_13_167
*769 FILLER_0_13_169
*770 FILLER_0_13_193
*771 FILLER_0_13_222
*772 FILLER_0_13_225
*773 FILLER_0_13_242
*774 FILLER_0_13_259
*775 FILLER_0_13_265
*776 FILLER_0_13_27
*777 FILLER_0_13_278
*778 FILLER_0_13_290
*779 FILLER_0_13_3
*780 FILLER_0_13_301
*781 FILLER_0_13_313
*782 FILLER_0_13_325
*783 FILLER_0_13_333
*784 FILLER_0_13_39
*785 FILLER_0_13_51
*786 FILLER_0_13_55
*787 FILLER_0_13_57
*788 FILLER_0_13_69
*789 FILLER_0_13_81
*790 FILLER_0_13_93
*791 FILLER_0_14_109
*792 FILLER_0_14_121
*793 FILLER_0_14_133
*794 FILLER_0_14_139
*795 FILLER_0_14_141
*796 FILLER_0_14_15
*797 FILLER_0_14_153
*798 FILLER_0_14_165
*799 FILLER_0_14_214
*800 FILLER_0_14_248
*801 FILLER_0_14_259
*802 FILLER_0_14_27
*803 FILLER_0_14_271
*804 FILLER_0_14_286
*805 FILLER_0_14_29
*806 FILLER_0_14_291
*807 FILLER_0_14_3
*808 FILLER_0_14_303
*809 FILLER_0_14_307
*810 FILLER_0_14_309
*811 FILLER_0_14_321
*812 FILLER_0_14_333
*813 FILLER_0_14_41
*814 FILLER_0_14_53
*815 FILLER_0_14_65
*816 FILLER_0_14_77
*817 FILLER_0_14_83
*818 FILLER_0_14_85
*819 FILLER_0_14_97
*820 FILLER_0_15_105
*821 FILLER_0_15_111
*822 FILLER_0_15_113
*823 FILLER_0_15_125
*824 FILLER_0_15_137
*825 FILLER_0_15_149
*826 FILLER_0_15_15
*827 FILLER_0_15_161
*828 FILLER_0_15_167
*829 FILLER_0_15_207
*830 FILLER_0_15_246
*831 FILLER_0_15_258
*832 FILLER_0_15_27
*833 FILLER_0_15_270
*834 FILLER_0_15_278
*835 FILLER_0_15_281
*836 FILLER_0_15_3
*837 FILLER_0_15_310
*838 FILLER_0_15_322
*839 FILLER_0_15_334
*840 FILLER_0_15_39
*841 FILLER_0_15_51
*842 FILLER_0_15_55
*843 FILLER_0_15_57
*844 FILLER_0_15_69
*845 FILLER_0_15_81
*846 FILLER_0_15_93
*847 FILLER_0_16_109
*848 FILLER_0_16_133
*849 FILLER_0_16_139
*850 FILLER_0_16_141
*851 FILLER_0_16_15
*852 FILLER_0_16_153
*853 FILLER_0_16_165
*854 FILLER_0_16_177
*855 FILLER_0_16_183
*856 FILLER_0_16_187
*857 FILLER_0_16_195
*858 FILLER_0_16_197
*859 FILLER_0_16_209
*860 FILLER_0_16_221
*861 FILLER_0_16_225
*862 FILLER_0_16_233
*863 FILLER_0_16_239
*864 FILLER_0_16_251
*865 FILLER_0_16_253
*866 FILLER_0_16_257
*867 FILLER_0_16_265
*868 FILLER_0_16_27
*869 FILLER_0_16_273
*870 FILLER_0_16_29
*871 FILLER_0_16_3
*872 FILLER_0_16_316
*873 FILLER_0_16_328
*874 FILLER_0_16_334
*875 FILLER_0_16_41
*876 FILLER_0_16_53
*877 FILLER_0_16_65
*878 FILLER_0_16_77
*879 FILLER_0_16_83
*880 FILLER_0_16_85
*881 FILLER_0_16_97
*882 FILLER_0_17_111
*883 FILLER_0_17_113
*884 FILLER_0_17_119
*885 FILLER_0_17_143
*886 FILLER_0_17_15
*887 FILLER_0_17_155
*888 FILLER_0_17_167
*889 FILLER_0_17_185
*890 FILLER_0_17_197
*891 FILLER_0_17_215
*892 FILLER_0_17_223
*893 FILLER_0_17_225
*894 FILLER_0_17_237
*895 FILLER_0_17_241
*896 FILLER_0_17_27
*897 FILLER_0_17_274
*898 FILLER_0_17_3
*899 FILLER_0_17_313
*900 FILLER_0_17_325
*901 FILLER_0_17_333
*902 FILLER_0_17_39
*903 FILLER_0_17_51
*904 FILLER_0_17_55
*905 FILLER_0_17_57
*906 FILLER_0_17_69
*907 FILLER_0_17_77
*908 FILLER_0_17_99
*909 FILLER_0_18_104
*910 FILLER_0_18_112
*911 FILLER_0_18_130
*912 FILLER_0_18_139
*913 FILLER_0_18_146
*914 FILLER_0_18_15
*915 FILLER_0_18_152
*916 FILLER_0_18_157
*917 FILLER_0_18_175
*918 FILLER_0_18_187
*919 FILLER_0_18_191
*920 FILLER_0_18_197
*921 FILLER_0_18_231
*922 FILLER_0_18_242
*923 FILLER_0_18_251
*924 FILLER_0_18_266
*925 FILLER_0_18_27
*926 FILLER_0_18_287
*927 FILLER_0_18_29
*928 FILLER_0_18_3
*929 FILLER_0_18_304
*930 FILLER_0_18_309
*931 FILLER_0_18_321
*932 FILLER_0_18_333
*933 FILLER_0_18_41
*934 FILLER_0_18_53
*935 FILLER_0_18_65
*936 FILLER_0_18_77
*937 FILLER_0_18_83
*938 FILLER_0_19_110
*939 FILLER_0_19_113
*940 FILLER_0_19_125
*941 FILLER_0_19_134
*942 FILLER_0_19_142
*943 FILLER_0_19_15
*944 FILLER_0_19_167
*945 FILLER_0_19_169
*946 FILLER_0_19_192
*947 FILLER_0_19_222
*948 FILLER_0_19_229
*949 FILLER_0_19_27
*950 FILLER_0_19_278
*951 FILLER_0_19_288
*952 FILLER_0_19_3
*953 FILLER_0_19_300
*954 FILLER_0_19_308
*955 FILLER_0_19_313
*956 FILLER_0_19_325
*957 FILLER_0_19_333
*958 FILLER_0_19_39
*959 FILLER_0_19_51
*960 FILLER_0_19_55
*961 FILLER_0_19_57
*962 FILLER_0_19_69
*963 FILLER_0_19_77
*964 FILLER_0_1_105
*965 FILLER_0_1_111
*966 FILLER_0_1_113
*967 FILLER_0_1_125
*968 FILLER_0_1_137
*969 FILLER_0_1_149
*970 FILLER_0_1_15
*971 FILLER_0_1_161
*972 FILLER_0_1_167
*973 FILLER_0_1_169
*974 FILLER_0_1_181
*975 FILLER_0_1_193
*976 FILLER_0_1_205
*977 FILLER_0_1_217
*978 FILLER_0_1_223
*979 FILLER_0_1_225
*980 FILLER_0_1_237
*981 FILLER_0_1_249
*982 FILLER_0_1_261
*983 FILLER_0_1_27
*984 FILLER_0_1_273
*985 FILLER_0_1_279
*986 FILLER_0_1_281
*987 FILLER_0_1_293
*988 FILLER_0_1_3
*989 FILLER_0_1_305
*990 FILLER_0_1_317
*991 FILLER_0_1_329
*992 FILLER_0_1_39
*993 FILLER_0_1_51
*994 FILLER_0_1_55
*995 FILLER_0_1_57
*996 FILLER_0_1_69
*997 FILLER_0_1_81
*998 FILLER_0_1_93
*999 FILLER_0_20_100
*1000 FILLER_0_20_112
*1001 FILLER_0_20_120
*1002 FILLER_0_20_15
*1003 FILLER_0_20_150
*1004 FILLER_0_20_179
*1005 FILLER_0_20_191
*1006 FILLER_0_20_195
*1007 FILLER_0_20_197
*1008 FILLER_0_20_234
*1009 FILLER_0_20_249
*1010 FILLER_0_20_27
*1011 FILLER_0_20_277
*1012 FILLER_0_20_29
*1013 FILLER_0_20_3
*1014 FILLER_0_20_307
*1015 FILLER_0_20_313
*1016 FILLER_0_20_331
*1017 FILLER_0_20_41
*1018 FILLER_0_20_53
*1019 FILLER_0_20_65
*1020 FILLER_0_21_107
*1021 FILLER_0_21_111
*1022 FILLER_0_21_113
*1023 FILLER_0_21_119
*1024 FILLER_0_21_139
*1025 FILLER_0_21_15
*1026 FILLER_0_21_150
*1027 FILLER_0_21_162
*1028 FILLER_0_21_178
*1029 FILLER_0_21_190
*1030 FILLER_0_21_196
*1031 FILLER_0_21_203
*1032 FILLER_0_21_223
*1033 FILLER_0_21_231
*1034 FILLER_0_21_258
*1035 FILLER_0_21_27
*1036 FILLER_0_21_288
*1037 FILLER_0_21_3
*1038 FILLER_0_21_302
*1039 FILLER_0_21_39
*1040 FILLER_0_21_51
*1041 FILLER_0_21_55
*1042 FILLER_0_21_57
*1043 FILLER_0_21_69
*1044 FILLER_0_21_73
*1045 FILLER_0_21_95
*1046 FILLER_0_22_133
*1047 FILLER_0_22_139
*1048 FILLER_0_22_145
*1049 FILLER_0_22_15
*1050 FILLER_0_22_166
*1051 FILLER_0_22_185
*1052 FILLER_0_22_193
*1053 FILLER_0_22_197
*1054 FILLER_0_22_220
*1055 FILLER_0_22_233
*1056 FILLER_0_22_27
*1057 FILLER_0_22_278
*1058 FILLER_0_22_282
*1059 FILLER_0_22_29
*1060 FILLER_0_22_3
*1061 FILLER_0_22_307
*1062 FILLER_0_22_317
*1063 FILLER_0_22_329
*1064 FILLER_0_22_41
*1065 FILLER_0_22_53
*1066 FILLER_0_22_61
*1067 FILLER_0_22_92
*1068 FILLER_0_23_105
*1069 FILLER_0_23_111
*1070 FILLER_0_23_113
*1071 FILLER_0_23_119
*1072 FILLER_0_23_15
*1073 FILLER_0_23_151
*1074 FILLER_0_23_162
*1075 FILLER_0_23_169
*1076 FILLER_0_23_204
*1077 FILLER_0_23_213
*1078 FILLER_0_23_223
*1079 FILLER_0_23_233
*1080 FILLER_0_23_252
*1081 FILLER_0_23_264
*1082 FILLER_0_23_27
*1083 FILLER_0_23_276
*1084 FILLER_0_23_281
*1085 FILLER_0_23_293
*1086 FILLER_0_23_3
*1087 FILLER_0_23_305
*1088 FILLER_0_23_317
*1089 FILLER_0_23_329
*1090 FILLER_0_23_39
*1091 FILLER_0_23_51
*1092 FILLER_0_23_55
*1093 FILLER_0_23_57
*1094 FILLER_0_23_69
*1095 FILLER_0_23_75
*1096 FILLER_0_24_107
*1097 FILLER_0_24_119
*1098 FILLER_0_24_135
*1099 FILLER_0_24_139
*1100 FILLER_0_24_141
*1101 FILLER_0_24_149
*1102 FILLER_0_24_15
*1103 FILLER_0_24_185
*1104 FILLER_0_24_193
*1105 FILLER_0_24_197
*1106 FILLER_0_24_230
*1107 FILLER_0_24_234
*1108 FILLER_0_24_253
*1109 FILLER_0_24_265
*1110 FILLER_0_24_27
*1111 FILLER_0_24_277
*1112 FILLER_0_24_289
*1113 FILLER_0_24_29
*1114 FILLER_0_24_3
*1115 FILLER_0_24_301
*1116 FILLER_0_24_307
*1117 FILLER_0_24_313
*1118 FILLER_0_24_325
*1119 FILLER_0_24_333
*1120 FILLER_0_24_35
*1121 FILLER_0_24_52
*1122 FILLER_0_24_64
*1123 FILLER_0_24_72
*1124 FILLER_0_24_83
*1125 FILLER_0_24_90
*1126 FILLER_0_24_94
*1127 FILLER_0_25_105
*1128 FILLER_0_25_111
*1129 FILLER_0_25_121
*1130 FILLER_0_25_137
*1131 FILLER_0_25_146
*1132 FILLER_0_25_15
*1133 FILLER_0_25_185
*1134 FILLER_0_25_197
*1135 FILLER_0_25_223
*1136 FILLER_0_25_233
*1137 FILLER_0_25_252
*1138 FILLER_0_25_264
*1139 FILLER_0_25_27
*1140 FILLER_0_25_273
*1141 FILLER_0_25_279
*1142 FILLER_0_25_3
*1143 FILLER_0_25_301
*1144 FILLER_0_25_333
*1145 FILLER_0_25_35
*1146 FILLER_0_25_68
*1147 FILLER_0_26_114
*1148 FILLER_0_26_120
*1149 FILLER_0_26_137
*1150 FILLER_0_26_15
*1151 FILLER_0_26_155
*1152 FILLER_0_26_174
*1153 FILLER_0_26_186
*1154 FILLER_0_26_194
*1155 FILLER_0_26_245
*1156 FILLER_0_26_251
*1157 FILLER_0_26_27
*1158 FILLER_0_26_29
*1159 FILLER_0_26_3
*1160 FILLER_0_26_332
*1161 FILLER_0_26_74
*1162 FILLER_0_26_82
*1163 FILLER_0_26_85
*1164 FILLER_0_26_89
*1165 FILLER_0_27_102
*1166 FILLER_0_27_106
*1167 FILLER_0_27_113
*1168 FILLER_0_27_15
*1169 FILLER_0_27_163
*1170 FILLER_0_27_167
*1171 FILLER_0_27_169
*1172 FILLER_0_27_181
*1173 FILLER_0_27_190
*1174 FILLER_0_27_196
*1175 FILLER_0_27_222
*1176 FILLER_0_27_239
*1177 FILLER_0_27_251
*1178 FILLER_0_27_260
*1179 FILLER_0_27_264
*1180 FILLER_0_27_27
*1181 FILLER_0_27_294
*1182 FILLER_0_27_3
*1183 FILLER_0_27_39
*1184 FILLER_0_27_77
*1185 FILLER_0_27_89
*1186 FILLER_0_27_96
*1187 FILLER_0_28_104
*1188 FILLER_0_28_125
*1189 FILLER_0_28_131
*1190 FILLER_0_28_141
*1191 FILLER_0_28_145
*1192 FILLER_0_28_15
*1193 FILLER_0_28_170
*1194 FILLER_0_28_206
*1195 FILLER_0_28_232
*1196 FILLER_0_28_244
*1197 FILLER_0_28_253
*1198 FILLER_0_28_260
*1199 FILLER_0_28_27
*1200 FILLER_0_28_275
*1201 FILLER_0_28_283
*1202 FILLER_0_28_29
*1203 FILLER_0_28_297
*1204 FILLER_0_28_3
*1205 FILLER_0_28_330
*1206 FILLER_0_28_334
*1207 FILLER_0_28_41
*1208 FILLER_0_28_69
*1209 FILLER_0_28_81
*1210 FILLER_0_28_85
*1211 FILLER_0_28_89
*1212 FILLER_0_29_104
*1213 FILLER_0_29_113
*1214 FILLER_0_29_132
*1215 FILLER_0_29_139
*1216 FILLER_0_29_15
*1217 FILLER_0_29_151
*1218 FILLER_0_29_167
*1219 FILLER_0_29_173
*1220 FILLER_0_29_185
*1221 FILLER_0_29_197
*1222 FILLER_0_29_209
*1223 FILLER_0_29_213
*1224 FILLER_0_29_220
*1225 FILLER_0_29_228
*1226 FILLER_0_29_240
*1227 FILLER_0_29_264
*1228 FILLER_0_29_27
*1229 FILLER_0_29_279
*1230 FILLER_0_29_3
*1231 FILLER_0_29_301
*1232 FILLER_0_29_314
*1233 FILLER_0_29_324
*1234 FILLER_0_29_332
*1235 FILLER_0_29_39
*1236 FILLER_0_29_54
*1237 FILLER_0_29_57
*1238 FILLER_0_29_69
*1239 FILLER_0_29_77
*1240 FILLER_0_2_109
*1241 FILLER_0_2_121
*1242 FILLER_0_2_133
*1243 FILLER_0_2_139
*1244 FILLER_0_2_141
*1245 FILLER_0_2_15
*1246 FILLER_0_2_153
*1247 FILLER_0_2_165
*1248 FILLER_0_2_177
*1249 FILLER_0_2_189
*1250 FILLER_0_2_195
*1251 FILLER_0_2_197
*1252 FILLER_0_2_209
*1253 FILLER_0_2_221
*1254 FILLER_0_2_233
*1255 FILLER_0_2_245
*1256 FILLER_0_2_251
*1257 FILLER_0_2_253
*1258 FILLER_0_2_265
*1259 FILLER_0_2_27
*1260 FILLER_0_2_277
*1261 FILLER_0_2_289
*1262 FILLER_0_2_29
*1263 FILLER_0_2_3
*1264 FILLER_0_2_301
*1265 FILLER_0_2_307
*1266 FILLER_0_2_309
*1267 FILLER_0_2_321
*1268 FILLER_0_2_333
*1269 FILLER_0_2_41
*1270 FILLER_0_2_53
*1271 FILLER_0_2_65
*1272 FILLER_0_2_77
*1273 FILLER_0_2_83
*1274 FILLER_0_2_85
*1275 FILLER_0_2_97
*1276 FILLER_0_30_106
*1277 FILLER_0_30_112
*1278 FILLER_0_30_116
*1279 FILLER_0_30_134
*1280 FILLER_0_30_141
*1281 FILLER_0_30_15
*1282 FILLER_0_30_180
*1283 FILLER_0_30_192
*1284 FILLER_0_30_213
*1285 FILLER_0_30_230
*1286 FILLER_0_30_253
*1287 FILLER_0_30_27
*1288 FILLER_0_30_289
*1289 FILLER_0_30_29
*1290 FILLER_0_30_294
*1291 FILLER_0_30_3
*1292 FILLER_0_30_41
*1293 FILLER_0_30_48
*1294 FILLER_0_30_61
*1295 FILLER_0_30_69
*1296 FILLER_0_30_79
*1297 FILLER_0_30_94
*1298 FILLER_0_31_102
*1299 FILLER_0_31_106
*1300 FILLER_0_31_133
*1301 FILLER_0_31_15
*1302 FILLER_0_31_161
*1303 FILLER_0_31_167
*1304 FILLER_0_31_185
*1305 FILLER_0_31_242
*1306 FILLER_0_31_248
*1307 FILLER_0_31_27
*1308 FILLER_0_31_276
*1309 FILLER_0_31_281
*1310 FILLER_0_31_285
*1311 FILLER_0_31_3
*1312 FILLER_0_31_33
*1313 FILLER_0_31_333
*1314 FILLER_0_31_73
*1315 FILLER_0_32_101
*1316 FILLER_0_32_109
*1317 FILLER_0_32_15
*1318 FILLER_0_32_191
*1319 FILLER_0_32_195
*1320 FILLER_0_32_200
*1321 FILLER_0_32_241
*1322 FILLER_0_32_249
*1323 FILLER_0_32_253
*1324 FILLER_0_32_27
*1325 FILLER_0_32_273
*1326 FILLER_0_32_285
*1327 FILLER_0_32_29
*1328 FILLER_0_32_291
*1329 FILLER_0_32_3
*1330 FILLER_0_32_329
*1331 FILLER_0_32_45
*1332 FILLER_0_32_55
*1333 FILLER_0_32_59
*1334 FILLER_0_32_65
*1335 FILLER_0_32_73
*1336 FILLER_0_33_105
*1337 FILLER_0_33_111
*1338 FILLER_0_33_113
*1339 FILLER_0_33_140
*1340 FILLER_0_33_15
*1341 FILLER_0_33_153
*1342 FILLER_0_33_186
*1343 FILLER_0_33_198
*1344 FILLER_0_33_202
*1345 FILLER_0_33_209
*1346 FILLER_0_33_223
*1347 FILLER_0_33_229
*1348 FILLER_0_33_233
*1349 FILLER_0_33_246
*1350 FILLER_0_33_258
*1351 FILLER_0_33_27
*1352 FILLER_0_33_270
*1353 FILLER_0_33_276
*1354 FILLER_0_33_281
*1355 FILLER_0_33_293
*1356 FILLER_0_33_299
*1357 FILLER_0_33_3
*1358 FILLER_0_33_33
*1359 FILLER_0_33_331
*1360 FILLER_0_33_55
*1361 FILLER_0_33_66
*1362 FILLER_0_33_78
*1363 FILLER_0_33_93
*1364 FILLER_0_34_102
*1365 FILLER_0_34_114
*1366 FILLER_0_34_136
*1367 FILLER_0_34_148
*1368 FILLER_0_34_15
*1369 FILLER_0_34_160
*1370 FILLER_0_34_166
*1371 FILLER_0_34_183
*1372 FILLER_0_34_195
*1373 FILLER_0_34_197
*1374 FILLER_0_34_221
*1375 FILLER_0_34_225
*1376 FILLER_0_34_249
*1377 FILLER_0_34_253
*1378 FILLER_0_34_261
*1379 FILLER_0_34_266
*1380 FILLER_0_34_27
*1381 FILLER_0_34_29
*1382 FILLER_0_34_297
*1383 FILLER_0_34_3
*1384 FILLER_0_34_318
*1385 FILLER_0_34_331
*1386 FILLER_0_34_60
*1387 FILLER_0_34_72
*1388 FILLER_0_34_85
*1389 FILLER_0_35_104
*1390 FILLER_0_35_143
*1391 FILLER_0_35_15
*1392 FILLER_0_35_169
*1393 FILLER_0_35_187
*1394 FILLER_0_35_199
*1395 FILLER_0_35_203
*1396 FILLER_0_35_232
*1397 FILLER_0_35_242
*1398 FILLER_0_35_253
*1399 FILLER_0_35_27
*1400 FILLER_0_35_279
*1401 FILLER_0_35_290
*1402 FILLER_0_35_3
*1403 FILLER_0_35_311
*1404 FILLER_0_35_39
*1405 FILLER_0_35_49
*1406 FILLER_0_35_55
*1407 FILLER_0_35_57
*1408 FILLER_0_35_69
*1409 FILLER_0_35_77
*1410 FILLER_0_36_110
*1411 FILLER_0_36_137
*1412 FILLER_0_36_15
*1413 FILLER_0_36_158
*1414 FILLER_0_36_190
*1415 FILLER_0_36_236
*1416 FILLER_0_36_250
*1417 FILLER_0_36_27
*1418 FILLER_0_36_29
*1419 FILLER_0_36_3
*1420 FILLER_0_36_307
*1421 FILLER_0_36_309
*1422 FILLER_0_36_334
*1423 FILLER_0_36_37
*1424 FILLER_0_36_54
*1425 FILLER_0_36_62
*1426 FILLER_0_36_81
*1427 FILLER_0_36_94
*1428 FILLER_0_37_116
*1429 FILLER_0_37_122
*1430 FILLER_0_37_136
*1431 FILLER_0_37_15
*1432 FILLER_0_37_167
*1433 FILLER_0_37_186
*1434 FILLER_0_37_192
*1435 FILLER_0_37_209
*1436 FILLER_0_37_214
*1437 FILLER_0_37_225
*1438 FILLER_0_37_27
*1439 FILLER_0_37_279
*1440 FILLER_0_37_289
*1441 FILLER_0_37_296
*1442 FILLER_0_37_3
*1443 FILLER_0_37_300
*1444 FILLER_0_37_334
*1445 FILLER_0_37_39
*1446 FILLER_0_37_51
*1447 FILLER_0_37_55
*1448 FILLER_0_37_57
*1449 FILLER_0_37_91
*1450 FILLER_0_38_10
*1451 FILLER_0_38_101
*1452 FILLER_0_38_110
*1453 FILLER_0_38_113
*1454 FILLER_0_38_118
*1455 FILLER_0_38_122
*1456 FILLER_0_38_126
*1457 FILLER_0_38_138
*1458 FILLER_0_38_14
*1459 FILLER_0_38_141
*1460 FILLER_0_38_153
*1461 FILLER_0_38_159
*1462 FILLER_0_38_167
*1463 FILLER_0_38_179
*1464 FILLER_0_38_18
*1465 FILLER_0_38_191
*1466 FILLER_0_38_195
*1467 FILLER_0_38_197
*1468 FILLER_0_38_205
*1469 FILLER_0_38_217
*1470 FILLER_0_38_22
*1471 FILLER_0_38_223
*1472 FILLER_0_38_225
*1473 FILLER_0_38_230
*1474 FILLER_0_38_238
*1475 FILLER_0_38_279
*1476 FILLER_0_38_287
*1477 FILLER_0_38_294
*1478 FILLER_0_38_32
*1479 FILLER_0_38_334
*1480 FILLER_0_38_38
*1481 FILLER_0_38_42
*1482 FILLER_0_38_46
*1483 FILLER_0_38_50
*1484 FILLER_0_38_54
*1485 FILLER_0_38_57
*1486 FILLER_0_38_6
*1487 FILLER_0_38_62
*1488 FILLER_0_38_66
*1489 FILLER_0_38_70
*1490 FILLER_0_38_80
*1491 FILLER_0_38_85
*1492 FILLER_0_3_105
*1493 FILLER_0_3_111
*1494 FILLER_0_3_113
*1495 FILLER_0_3_125
*1496 FILLER_0_3_137
*1497 FILLER_0_3_149
*1498 FILLER_0_3_15
*1499 FILLER_0_3_161
*1500 FILLER_0_3_167
*1501 FILLER_0_3_169
*1502 FILLER_0_3_181
*1503 FILLER_0_3_193
*1504 FILLER_0_3_205
*1505 FILLER_0_3_217
*1506 FILLER_0_3_223
*1507 FILLER_0_3_225
*1508 FILLER_0_3_237
*1509 FILLER_0_3_249
*1510 FILLER_0_3_261
*1511 FILLER_0_3_27
*1512 FILLER_0_3_273
*1513 FILLER_0_3_279
*1514 FILLER_0_3_281
*1515 FILLER_0_3_293
*1516 FILLER_0_3_3
*1517 FILLER_0_3_305
*1518 FILLER_0_3_317
*1519 FILLER_0_3_329
*1520 FILLER_0_3_39
*1521 FILLER_0_3_51
*1522 FILLER_0_3_55
*1523 FILLER_0_3_57
*1524 FILLER_0_3_69
*1525 FILLER_0_3_81
*1526 FILLER_0_3_93
*1527 FILLER_0_4_109
*1528 FILLER_0_4_121
*1529 FILLER_0_4_133
*1530 FILLER_0_4_139
*1531 FILLER_0_4_141
*1532 FILLER_0_4_15
*1533 FILLER_0_4_153
*1534 FILLER_0_4_165
*1535 FILLER_0_4_177
*1536 FILLER_0_4_189
*1537 FILLER_0_4_195
*1538 FILLER_0_4_197
*1539 FILLER_0_4_209
*1540 FILLER_0_4_221
*1541 FILLER_0_4_233
*1542 FILLER_0_4_245
*1543 FILLER_0_4_251
*1544 FILLER_0_4_253
*1545 FILLER_0_4_265
*1546 FILLER_0_4_27
*1547 FILLER_0_4_277
*1548 FILLER_0_4_289
*1549 FILLER_0_4_29
*1550 FILLER_0_4_3
*1551 FILLER_0_4_301
*1552 FILLER_0_4_307
*1553 FILLER_0_4_309
*1554 FILLER_0_4_321
*1555 FILLER_0_4_333
*1556 FILLER_0_4_41
*1557 FILLER_0_4_53
*1558 FILLER_0_4_65
*1559 FILLER_0_4_77
*1560 FILLER_0_4_83
*1561 FILLER_0_4_85
*1562 FILLER_0_4_97
*1563 FILLER_0_5_105
*1564 FILLER_0_5_111
*1565 FILLER_0_5_113
*1566 FILLER_0_5_125
*1567 FILLER_0_5_137
*1568 FILLER_0_5_149
*1569 FILLER_0_5_15
*1570 FILLER_0_5_161
*1571 FILLER_0_5_167
*1572 FILLER_0_5_169
*1573 FILLER_0_5_181
*1574 FILLER_0_5_193
*1575 FILLER_0_5_205
*1576 FILLER_0_5_217
*1577 FILLER_0_5_223
*1578 FILLER_0_5_225
*1579 FILLER_0_5_237
*1580 FILLER_0_5_249
*1581 FILLER_0_5_261
*1582 FILLER_0_5_27