*SPEF "ieee 1481-1999"
*DESIGN "tt_um_gak25_8bit_cpu_ext"
*DATE "05:17:58 Friday April 19, 2024"
*VENDOR "The OpenROAD Project"
*PROGRAM "OpenROAD"
*VERSION "0889970d1790a2617e69f253221b8bd7626e51dc"
*DESIGN_FLOW "NAME_SCOPE LOCAL" "PIN_CAP NONE"
*DIVIDER /
*DELIMITER :
*BUS_DELIMITER []
*T_UNIT 1 NS
*C_UNIT 1 PF
*R_UNIT 1 OHM
*L_UNIT 1 HENRY

*NAME_MAP
*3 clk
*4 ena
*5 rst_n
*6 ui_in[0]
*7 ui_in[1]
*8 ui_in[2]
*9 ui_in[3]
*10 ui_in[4]
*11 ui_in[5]
*12 ui_in[6]
*13 ui_in[7]
*14 uio_in[0]
*15 uio_in[1]
*16 uio_in[2]
*17 uio_in[3]
*18 uio_in[4]
*19 uio_in[5]
*20 uio_in[6]
*21 uio_in[7]
*22 net37
*23 net38
*24 net39
*25 net40
*26 net41
*27 net42
*28 net43
*29 net44
*30 net45
*31 net46
*32 net47
*33 net48
*34 net49
*35 net50
*36 net51
*37 net52
*38 uo_out[0]
*39 uo_out[1]
*40 uo_out[2]
*41 uo_out[3]
*42 uo_out[4]
*43 uo_out[5]
*44 uo_out[6]
*45 uo_out[7]
*46 RF1\.reg_data\[0\]\[0\]
*47 RF1\.reg_data\[0\]\[1\]
*48 RF1\.reg_data\[0\]\[2\]
*49 RF1\.reg_data\[0\]\[3\]
*50 RF1\.reg_data\[0\]\[4\]
*51 RF1\.reg_data\[0\]\[5\]
*52 RF1\.reg_data\[0\]\[6\]
*53 RF1\.reg_data\[0\]\[7\]
*54 RF1\.reg_data\[10\]\[0\]
*55 RF1\.reg_data\[10\]\[1\]
*56 RF1\.reg_data\[10\]\[2\]
*57 RF1\.reg_data\[10\]\[3\]
*58 RF1\.reg_data\[10\]\[4\]
*59 RF1\.reg_data\[10\]\[5\]
*60 RF1\.reg_data\[10\]\[6\]
*61 RF1\.reg_data\[10\]\[7\]
*62 RF1\.reg_data\[11\]\[0\]
*63 RF1\.reg_data\[11\]\[1\]
*64 RF1\.reg_data\[11\]\[2\]
*65 RF1\.reg_data\[11\]\[3\]
*66 RF1\.reg_data\[11\]\[4\]
*67 RF1\.reg_data\[11\]\[5\]
*68 RF1\.reg_data\[11\]\[6\]
*69 RF1\.reg_data\[11\]\[7\]
*70 RF1\.reg_data\[12\]\[0\]
*71 RF1\.reg_data\[12\]\[1\]
*72 RF1\.reg_data\[12\]\[2\]
*73 RF1\.reg_data\[12\]\[3\]
*74 RF1\.reg_data\[12\]\[4\]
*75 RF1\.reg_data\[12\]\[5\]
*76 RF1\.reg_data\[12\]\[6\]
*77 RF1\.reg_data\[12\]\[7\]
*78 RF1\.reg_data\[13\]\[0\]
*79 RF1\.reg_data\[13\]\[1\]
*80 RF1\.reg_data\[13\]\[2\]
*81 RF1\.reg_data\[13\]\[3\]
*82 RF1\.reg_data\[13\]\[4\]
*83 RF1\.reg_data\[13\]\[5\]
*84 RF1\.reg_data\[13\]\[6\]
*85 RF1\.reg_data\[13\]\[7\]
*86 RF1\.reg_data\[1\]\[0\]
*87 RF1\.reg_data\[1\]\[1\]
*88 RF1\.reg_data\[1\]\[2\]
*89 RF1\.reg_data\[1\]\[3\]
*90 RF1\.reg_data\[1\]\[4\]
*91 RF1\.reg_data\[1\]\[5\]
*92 RF1\.reg_data\[1\]\[6\]
*93 RF1\.reg_data\[1\]\[7\]
*94 RF1\.reg_data\[2\]\[0\]
*95 RF1\.reg_data\[2\]\[1\]
*96 RF1\.reg_data\[2\]\[2\]
*97 RF1\.reg_data\[2\]\[3\]
*98 RF1\.reg_data\[2\]\[4\]
*99 RF1\.reg_data\[2\]\[5\]
*100 RF1\.reg_data\[2\]\[6\]
*101 RF1\.reg_data\[2\]\[7\]
*102 RF1\.reg_data\[3\]\[0\]
*103 RF1\.reg_data\[3\]\[1\]
*104 RF1\.reg_data\[3\]\[2\]
*105 RF1\.reg_data\[3\]\[3\]
*106 RF1\.reg_data\[3\]\[4\]
*107 RF1\.reg_data\[3\]\[5\]
*108 RF1\.reg_data\[3\]\[6\]
*109 RF1\.reg_data\[3\]\[7\]
*110 RF1\.reg_data\[4\]\[0\]
*111 RF1\.reg_data\[4\]\[1\]
*112 RF1\.reg_data\[4\]\[2\]
*113 RF1\.reg_data\[4\]\[3\]
*114 RF1\.reg_data\[4\]\[4\]
*115 RF1\.reg_data\[4\]\[5\]
*116 RF1\.reg_data\[4\]\[6\]
*117 RF1\.reg_data\[4\]\[7\]
*118 RF1\.reg_data\[5\]\[0\]
*119 RF1\.reg_data\[5\]\[1\]
*120 RF1\.reg_data\[5\]\[2\]
*121 RF1\.reg_data\[5\]\[3\]
*122 RF1\.reg_data\[5\]\[4\]
*123 RF1\.reg_data\[5\]\[5\]
*124 RF1\.reg_data\[5\]\[6\]
*125 RF1\.reg_data\[5\]\[7\]
*126 RF1\.reg_data\[6\]\[0\]
*127 RF1\.reg_data\[6\]\[1\]
*128 RF1\.reg_data\[6\]\[2\]
*129 RF1\.reg_data\[6\]\[3\]
*130 RF1\.reg_data\[6\]\[4\]
*131 RF1\.reg_data\[6\]\[5\]
*132 RF1\.reg_data\[6\]\[6\]
*133 RF1\.reg_data\[6\]\[7\]
*134 RF1\.reg_data\[7\]\[0\]
*135 RF1\.reg_data\[7\]\[1\]
*136 RF1\.reg_data\[7\]\[2\]
*137 RF1\.reg_data\[7\]\[3\]
*138 RF1\.reg_data\[7\]\[4\]
*139 RF1\.reg_data\[7\]\[5\]
*140 RF1\.reg_data\[7\]\[6\]
*141 RF1\.reg_data\[7\]\[7\]
*142 RF1\.reg_data\[8\]\[0\]
*143 RF1\.reg_data\[8\]\[1\]
*144 RF1\.reg_data\[8\]\[2\]
*145 RF1\.reg_data\[8\]\[3\]
*146 RF1\.reg_data\[8\]\[4\]
*147 RF1\.reg_data\[8\]\[5\]
*148 RF1\.reg_data\[8\]\[6\]
*149 RF1\.reg_data\[8\]\[7\]
*150 RF1\.reg_data\[9\]\[0\]
*151 RF1\.reg_data\[9\]\[1\]
*152 RF1\.reg_data\[9\]\[2\]
*153 RF1\.reg_data\[9\]\[3\]
*154 RF1\.reg_data\[9\]\[4\]
*155 RF1\.reg_data\[9\]\[5\]
*156 RF1\.reg_data\[9\]\[6\]
*157 RF1\.reg_data\[9\]\[7\]
*158 _0000_
*159 _0001_
*160 _0002_
*161 _0003_
*162 _0004_
*163 _0005_
*164 _0006_
*165 _0007_
*166 _0008_
*167 _0009_
*168 _0010_
*169 _0011_
*170 _0012_
*171 _0013_
*172 _0014_
*173 _0015_
*174 _0016_
*175 _0017_
*176 _0018_
*177 _0019_
*178 _0020_
*179 _0021_
*180 _0022_
*181 _0023_
*182 _0024_
*183 _0025_
*184 _0026_
*185 _0027_
*186 _0028_
*187 _0029_
*188 _0030_
*189 _0031_
*190 _0032_
*191 _0033_
*192 _0034_
*193 _0035_
*194 _0036_
*195 _0037_
*196 _0038_
*197 _0039_
*198 _0040_
*199 _0041_
*200 _0042_
*201 _0043_
*202 _0044_
*203 _0045_
*204 _0046_
*205 _0047_
*206 _0048_
*207 _0049_
*208 _0050_
*209 _0051_
*210 _0052_
*211 _0053_
*212 _0054_
*213 _0055_
*214 _0056_
*215 _0057_
*216 _0058_
*217 _0059_
*218 _0060_
*219 _0061_
*220 _0062_
*221 _0063_
*222 _0064_
*223 _0065_
*224 _0066_
*225 _0067_
*226 _0068_
*227 _0069_
*228 _0070_
*229 _0071_
*230 _0072_
*231 _0073_
*232 _0074_
*233 _0075_
*234 _0076_
*235 _0077_
*236 _0078_
*237 _0079_
*238 _0080_
*239 _0081_
*240 _0082_
*241 _0083_
*242 _0084_
*243 _0085_
*244 _0086_
*245 _0087_
*246 _0088_
*247 _0089_
*248 _0090_
*249 _0091_
*250 _0092_
*251 _0093_
*252 _0094_
*253 _0095_
*254 _0096_
*255 _0097_
*256 _0098_
*257 _0099_
*258 _0100_
*259 _0101_
*260 _0102_
*261 _0103_
*262 _0104_
*263 _0105_
*264 _0106_
*265 _0107_
*266 _0108_
*267 _0109_
*268 _0110_
*269 _0111_
*270 _0112_
*271 _0113_
*272 _0114_
*273 _0115_
*274 _0116_
*275 _0117_
*276 _0118_
*277 _0119_
*278 _0120_
*279 _0121_
*280 _0122_
*281 _0123_
*282 _0124_
*283 _0125_
*284 _0126_
*285 _0127_
*286 _0128_
*287 _0129_
*288 _0130_
*289 _0131_
*290 _0132_
*291 _0133_
*292 _0134_
*293 _0135_
*294 _0136_
*295 _0137_
*296 _0138_
*297 _0139_
*298 _0140_
*299 _0141_
*300 _0142_
*301 _0143_
*302 _0144_
*303 _0145_
*304 _0146_
*305 _0147_
*306 _0148_
*307 _0149_
*308 _0150_
*309 _0151_
*310 _0152_
*311 _0153_
*312 _0154_
*313 _0155_
*314 _0156_
*315 _0157_
*316 _0158_
*317 _0159_
*318 _0160_
*319 _0161_
*320 _0162_
*321 _0163_
*322 _0164_
*323 _0165_
*324 _0166_
*325 _0167_
*326 _0168_
*327 _0169_
*328 _0170_
*329 _0171_
*330 _0172_
*331 _0173_
*332 _0174_
*333 _0175_
*334 _0176_
*335 _0177_
*336 _0178_
*337 _0179_
*338 _0180_
*339 _0181_
*340 _0182_
*341 _0183_
*342 _0184_
*343 _0185_
*344 _0186_
*345 _0187_
*346 _0188_
*347 _0189_
*348 _0190_
*349 _0191_
*350 _0192_
*351 _0193_
*352 _0194_
*353 _0195_
*354 _0196_
*355 _0197_
*356 _0198_
*357 _0199_
*358 _0200_
*359 _0201_
*360 _0202_
*361 _0203_
*362 _0204_
*363 _0205_
*364 _0206_
*365 _0207_
*366 _0208_
*367 _0209_
*368 _0210_
*369 _0211_
*370 _0212_
*371 _0213_
*372 _0214_
*373 _0215_
*374 _0216_
*375 _0217_
*376 _0218_
*377 _0219_
*378 _0220_
*379 _0221_
*380 _0222_
*381 _0223_
*382 _0224_
*383 _0225_
*384 _0226_
*385 _0227_
*386 _0228_
*387 _0229_
*388 _0230_
*389 _0231_
*390 _0232_
*391 _0233_
*392 _0234_
*393 _0235_
*394 _0236_
*395 _0237_
*396 _0238_
*397 _0239_
*398 _0240_
*399 _0241_
*400 _0242_
*401 _0243_
*402 _0244_
*403 _0245_
*404 _0246_
*405 _0247_
*406 _0248_
*407 _0249_
*408 _0250_
*409 _0251_
*410 _0252_
*411 _0253_
*412 _0254_
*413 _0255_
*414 _0256_
*415 _0257_
*416 _0258_
*417 _0259_
*418 _0260_
*419 _0261_
*420 _0262_
*421 _0263_
*422 _0264_
*423 _0265_
*424 _0266_
*425 _0267_
*426 _0268_
*427 _0269_
*428 _0270_
*429 _0271_
*430 _0272_
*431 _0273_
*432 _0274_
*433 _0275_
*434 _0276_
*435 _0277_
*436 _0278_
*437 _0279_
*438 _0280_
*439 _0281_
*440 _0282_
*441 _0283_
*442 _0284_
*443 _0285_
*444 _0286_
*445 _0287_
*446 _0288_
*447 _0289_
*448 _0290_
*449 _0291_
*450 _0292_
*451 _0293_
*452 _0294_
*453 _0295_
*454 _0296_
*455 _0297_
*456 _0298_
*457 _0299_
*458 _0300_
*459 _0301_
*460 _0302_
*461 _0303_
*462 _0304_
*463 _0305_
*464 _0306_
*465 _0307_
*466 _0308_
*467 _0309_
*468 _0310_
*469 _0311_
*470 _0312_
*471 _0313_
*472 _0314_
*473 _0315_
*474 _0316_
*475 _0317_
*476 _0318_
*477 _0319_
*478 _0320_
*479 _0321_
*480 _0322_
*481 _0323_
*482 _0324_
*483 _0325_
*484 _0326_
*485 _0327_
*486 _0328_
*487 _0329_
*488 _0330_
*489 _0331_
*490 _0332_
*491 _0333_
*492 _0334_
*493 _0335_
*494 _0336_
*495 _0337_
*496 _0338_
*497 _0339_
*498 _0340_
*499 _0341_
*500 _0342_
*501 _0343_
*502 _0344_
*503 _0345_
*504 _0346_
*505 _0347_
*506 _0348_
*507 _0349_
*508 _0350_
*509 _0351_
*510 _0352_
*511 _0353_
*512 _0354_
*513 _0355_
*514 _0356_
*515 _0357_
*516 _0358_
*517 _0359_
*518 _0360_
*519 _0361_
*520 _0362_
*521 _0363_
*522 _0364_
*523 _0365_
*524 _0366_
*525 _0367_
*526 _0368_
*527 _0369_
*528 _0370_
*529 _0371_
*530 _0372_
*531 _0373_
*532 _0374_
*533 _0375_
*534 _0376_
*535 _0377_
*536 _0378_
*537 _0379_
*538 _0380_
*539 _0381_
*540 _0382_
*541 _0383_
*542 _0384_
*543 _0385_
*544 _0386_
*545 _0387_
*546 _0388_
*547 _0389_
*548 _0390_
*549 _0391_
*550 _0392_
*551 _0393_
*552 _0394_
*553 _0395_
*554 _0396_
*555 _0397_
*556 _0398_
*557 _0399_
*558 _0400_
*559 _0401_
*560 _0402_
*561 _0403_
*562 _0404_
*563 _0405_
*564 _0406_
*565 _0407_
*566 _0408_
*567 _0409_
*568 _0410_
*569 _0411_
*570 _0412_
*571 _0413_
*572 _0414_
*573 _0415_
*574 _0416_
*575 _0417_
*576 _0418_
*577 _0419_
*578 _0420_
*579 _0421_
*580 _0422_
*581 _0423_
*582 _0424_
*583 _0425_
*584 _0426_
*585 _0427_
*586 _0428_
*587 _0429_
*588 _0430_
*589 _0431_
*590 _0432_
*591 _0433_
*592 _0434_
*593 _0435_
*594 _0436_
*595 _0437_
*596 _0438_
*597 _0439_
*598 _0440_
*599 _0441_
*600 _0442_
*601 _0443_
*602 _0444_
*603 _0445_
*604 _0446_
*605 _0447_
*606 _0448_
*607 _0449_
*608 _0450_
*609 _0451_
*610 _0452_
*611 _0453_
*612 _0454_
*613 _0455_
*614 _0456_
*615 _0457_
*616 _0458_
*617 _0459_
*618 _0460_
*619 _0461_
*620 _0462_
*621 _0463_
*622 _0464_
*623 _0465_
*624 _0466_
*625 _0467_
*626 _0468_
*627 _0469_
*628 _0470_
*629 _0471_
*630 _0472_
*631 _0473_
*632 _0474_
*633 _0475_
*634 _0476_
*635 _0477_
*636 _0478_
*637 _0479_
*638 _0480_
*639 _0481_
*640 _0482_
*641 _0483_
*642 _0484_
*643 _0485_
*644 _0486_
*645 _0487_
*646 _0488_
*647 _0489_
*648 _0490_
*649 _0491_
*650 _0492_
*651 _0493_
*652 _0494_
*653 _0495_
*654 _0496_
*655 _0497_
*656 _0498_
*657 _0499_
*658 _0500_
*659 _0501_
*660 _0502_
*661 _0503_
*662 _0504_
*663 _0505_
*664 _0506_
*665 _0507_
*666 _0508_
*667 _0509_
*668 _0510_
*669 _0511_
*670 _0512_
*671 _0513_
*672 _0514_
*673 _0515_
*674 _0516_
*675 _0517_
*676 _0518_
*677 _0519_
*678 _0520_
*679 _0521_
*680 _0522_
*681 _0523_
*682 _0524_
*683 _0525_
*684 _0526_
*685 _0527_
*686 _0528_
*687 _0529_
*688 _0530_
*689 _0531_
*690 _0532_
*691 _0533_
*692 _0534_
*693 _0535_
*694 _0536_
*695 _0537_
*696 _0538_
*697 _0539_
*698 _0540_
*699 _0541_
*700 _0542_
*701 _0543_
*702 _0544_
*703 _0545_
*704 _0546_
*705 _0547_
*706 _0548_
*707 _0549_
*708 _0550_
*709 _0551_
*710 _0552_
*711 _0553_
*712 _0554_
*713 _0555_
*714 _0556_
*715 _0557_
*716 _0558_
*717 _0559_
*718 _0560_
*719 _0561_
*720 _0562_
*721 _0563_
*722 _0564_
*723 _0565_
*724 _0566_
*725 _0567_
*726 _0568_
*727 _0569_
*728 _0570_
*729 _0571_
*730 _0572_
*731 _0573_
*732 _0574_
*733 _0575_
*734 _0576_
*735 _0577_
*736 _0578_
*737 _0579_
*738 _0580_
*739 _0581_
*740 _0582_
*741 _0583_
*742 _0584_
*743 _0585_
*744 _0586_
*745 _0587_
*746 _0588_
*747 _0589_
*748 _0590_
*749 _0591_
*750 _0592_
*751 _0593_
*752 _0594_
*753 _0595_
*754 _0596_
*755 _0597_
*756 _0598_
*757 _0599_
*758 _0600_
*759 _0601_
*760 _0602_
*761 _0603_
*762 _0604_
*763 _0605_
*764 _0606_
*765 _0607_
*766 _0608_
*767 _0609_
*768 _0610_
*769 _0611_
*770 _0612_
*771 _0613_
*772 _0614_
*773 _0615_
*774 _0616_
*775 _0617_
*776 _0618_
*777 _0619_
*778 _0620_
*779 _0621_
*780 _0622_
*781 _0623_
*782 _0624_
*783 _0625_
*784 _0626_
*785 _0627_
*786 _0628_
*787 _0629_
*788 _0630_
*789 _0631_
*790 _0632_
*791 _0633_
*792 _0634_
*793 _0635_
*794 _0636_
*795 _0637_
*796 _0638_
*797 _0639_
*798 _0640_
*799 _0641_
*800 _0642_
*801 _0643_
*802 _0644_
*803 _0645_
*804 _0646_
*805 _0647_
*806 _0648_
*807 _0649_
*808 _0650_
*809 _0651_
*810 _0652_
*811 _0653_
*812 _0654_
*813 _0655_
*814 _0656_
*815 _0657_
*816 _0658_
*817 _0659_
*818 _0660_
*819 _0661_
*820 _0662_
*821 _0663_
*822 _0664_
*823 _0665_
*824 _0666_
*825 _0667_
*826 _0668_
*827 _0669_
*828 _0670_
*829 _0671_
*830 _0672_
*831 _0673_
*832 _0674_
*833 _0675_
*834 _0676_
*835 _0677_
*836 _0678_
*837 _0679_
*838 _0680_
*839 _0681_
*840 _0682_
*841 _0683_
*842 _0684_
*843 _0685_
*844 _0686_
*845 _0687_
*846 _0688_
*847 _0689_
*848 _0690_
*849 _0691_
*850 _0692_
*851 _0693_
*852 _0694_
*853 _0695_
*854 _0696_
*855 _0697_
*856 _0698_
*857 _0699_
*858 _0700_
*859 _0701_
*860 _0702_
*861 _0703_
*862 _0704_
*863 _0705_
*864 _0706_
*865 _0707_
*866 _0708_
*867 clknet_0_clk
*868 clknet_4_0_0_clk
*869 clknet_4_10_0_clk
*870 clknet_4_11_0_clk
*871 clknet_4_12_0_clk
*872 clknet_4_13_0_clk
*873 clknet_4_14_0_clk
*874 clknet_4_15_0_clk
*875 clknet_4_1_0_clk
*876 clknet_4_2_0_clk
*877 clknet_4_3_0_clk
*878 clknet_4_4_0_clk
*879 clknet_4_5_0_clk
*880 clknet_4_6_0_clk
*881 clknet_4_7_0_clk
*882 clknet_4_8_0_clk
*883 clknet_4_9_0_clk
*884 net1
*885 net10
*886 net11
*887 net12
*888 net13
*889 net14
*890 net15
*891 net16
*892 net17
*893 net18
*894 net19
*895 net2
*896 net20
*897 net21
*898 net22
*899 net23
*900 net24
*901 net25
*902 net26
*903 net27
*904 net28
*905 net29
*906 net3
*907 net30
*908 net31
*909 net32
*910 net33
*911 net34
*912 net35
*913 net36
*914 net4
*915 net5
*916 net53
*917 net54
*918 net55
*919 net56
*920 net6
*921 net7
*922 net8
*923 net9
*924 processor_stat
*925 FILLER_0_0_109
*926 FILLER_0_0_113
*927 FILLER_0_0_125
*928 FILLER_0_0_137
*929 FILLER_0_0_141
*930 FILLER_0_0_15
*931 FILLER_0_0_153
*932 FILLER_0_0_165
*933 FILLER_0_0_169
*934 FILLER_0_0_181
*935 FILLER_0_0_193
*936 FILLER_0_0_197
*937 FILLER_0_0_209
*938 FILLER_0_0_221
*939 FILLER_0_0_225
*940 FILLER_0_0_237
*941 FILLER_0_0_249
*942 FILLER_0_0_253
*943 FILLER_0_0_265
*944 FILLER_0_0_27
*945 FILLER_0_0_277
*946 FILLER_0_0_281
*947 FILLER_0_0_29
*948 FILLER_0_0_293
*949 FILLER_0_0_3
*950 FILLER_0_0_305
*951 FILLER_0_0_309
*952 FILLER_0_0_321
*953 FILLER_0_0_333
*954 FILLER_0_0_41
*955 FILLER_0_0_53
*956 FILLER_0_0_57
*957 FILLER_0_0_69
*958 FILLER_0_0_81
*959 FILLER_0_0_85
*960 FILLER_0_0_97
*961 FILLER_0_10_109
*962 FILLER_0_10_121
*963 FILLER_0_10_133
*964 FILLER_0_10_139
*965 FILLER_0_10_141
*966 FILLER_0_10_15
*967 FILLER_0_10_153
*968 FILLER_0_10_165
*969 FILLER_0_10_177
*970 FILLER_0_10_189
*971 FILLER_0_10_195
*972 FILLER_0_10_197
*973 FILLER_0_10_225
*974 FILLER_0_10_237
*975 FILLER_0_10_242
*976 FILLER_0_10_250
*977 FILLER_0_10_27
*978 FILLER_0_10_274
*979 FILLER_0_10_286
*980 FILLER_0_10_29
*981 FILLER_0_10_298
*982 FILLER_0_10_3
*983 FILLER_0_10_306
*984 FILLER_0_10_309
*985 FILLER_0_10_321
*986 FILLER_0_10_333
*987 FILLER_0_10_41
*988 FILLER_0_10_53
*989 FILLER_0_10_65
*990 FILLER_0_10_77
*991 FILLER_0_10_83
*992 FILLER_0_10_85
*993 FILLER_0_10_97
*994 FILLER_0_11_105
*995 FILLER_0_11_111
*996 FILLER_0_11_113
*997 FILLER_0_11_125
*998 FILLER_0_11_137
*999 FILLER_0_11_149
*1000 FILLER_0_11_15
*1001 FILLER_0_11_161
*1002 FILLER_0_11_167
*1003 FILLER_0_11_212
*1004 FILLER_0_11_222
*1005 FILLER_0_11_27
*1006 FILLER_0_11_274
*1007 FILLER_0_11_281
*1008 FILLER_0_11_293
*1009 FILLER_0_11_3
*1010 FILLER_0_11_305
*1011 FILLER_0_11_317
*1012 FILLER_0_11_329
*1013 FILLER_0_11_39
*1014 FILLER_0_11_51
*1015 FILLER_0_11_55
*1016 FILLER_0_11_57
*1017 FILLER_0_11_69
*1018 FILLER_0_11_81
*1019 FILLER_0_11_93
*1020 FILLER_0_12_109
*1021 FILLER_0_12_121
*1022 FILLER_0_12_133
*1023 FILLER_0_12_139
*1024 FILLER_0_12_141
*1025 FILLER_0_12_15
*1026 FILLER_0_12_153
*1027 FILLER_0_12_161
*1028 FILLER_0_12_209
*1029 FILLER_0_12_240
*1030 FILLER_0_12_250
*1031 FILLER_0_12_256
*1032 FILLER_0_12_27
*1033 FILLER_0_12_280
*1034 FILLER_0_12_29
*1035 FILLER_0_12_292
*1036 FILLER_0_12_3
*1037 FILLER_0_12_304
*1038 FILLER_0_12_309
*1039 FILLER_0_12_321
*1040 FILLER_0_12_333
*1041 FILLER_0_12_41
*1042 FILLER_0_12_53
*1043 FILLER_0_12_65
*1044 FILLER_0_12_77
*1045 FILLER_0_12_83
*1046 FILLER_0_12_85
*1047 FILLER_0_12_97
*1048 FILLER_0_13_105
*1049 FILLER_0_13_111
*1050 FILLER_0_13_113
*1051 FILLER_0_13_125
*1052 FILLER_0_13_137
*1053 FILLER_0_13_149
*1054 FILLER_0_13_15
*1055 FILLER_0_13_161
*1056 FILLER_0_13_167
*1057 FILLER_0_13_169
*1058 FILLER_0_13_175
*1059 FILLER_0_13_185
*1060 FILLER_0_13_212
*1061 FILLER_0_13_218
*1062 FILLER_0_13_237
*1063 FILLER_0_13_267
*1064 FILLER_0_13_27
*1065 FILLER_0_13_279
*1066 FILLER_0_13_281
*1067 FILLER_0_13_293
*1068 FILLER_0_13_3
*1069 FILLER_0_13_305
*1070 FILLER_0_13_317
*1071 FILLER_0_13_329
*1072 FILLER_0_13_39
*1073 FILLER_0_13_51
*1074 FILLER_0_13_55
*1075 FILLER_0_13_57
*1076 FILLER_0_13_69
*1077 FILLER_0_13_81
*1078 FILLER_0_13_93
*1079 FILLER_0_14_109
*1080 FILLER_0_14_121
*1081 FILLER_0_14_133
*1082 FILLER_0_14_139
*1083 FILLER_0_14_141
*1084 FILLER_0_14_15
*1085 FILLER_0_14_153
*1086 FILLER_0_14_165
*1087 FILLER_0_14_177
*1088 FILLER_0_14_189
*1089 FILLER_0_14_195
*1090 FILLER_0_14_206
*1091 FILLER_0_14_218
*1092 FILLER_0_14_230
*1093 FILLER_0_14_245
*1094 FILLER_0_14_251
*1095 FILLER_0_14_262
*1096 FILLER_0_14_27
*1097 FILLER_0_14_274
*1098 FILLER_0_14_286
*1099 FILLER_0_14_29
*1100 FILLER_0_14_298
*1101 FILLER_0_14_3
*1102 FILLER_0_14_306
*1103 FILLER_0_14_309
*1104 FILLER_0_14_321
*1105 FILLER_0_14_333
*1106 FILLER_0_14_41
*1107 FILLER_0_14_53
*1108 FILLER_0_14_65
*1109 FILLER_0_14_77
*1110 FILLER_0_14_83
*1111 FILLER_0_14_85
*1112 FILLER_0_14_97
*1113 FILLER_0_15_105
*1114 FILLER_0_15_111
*1115 FILLER_0_15_113
*1116 FILLER_0_15_125
*1117 FILLER_0_15_137
*1118 FILLER_0_15_149
*1119 FILLER_0_15_15
*1120 FILLER_0_15_161
*1121 FILLER_0_15_167
*1122 FILLER_0_15_169
*1123 FILLER_0_15_181
*1124 FILLER_0_15_193
*1125 FILLER_0_15_205
*1126 FILLER_0_15_217
*1127 FILLER_0_15_223
*1128 FILLER_0_15_225
*1129 FILLER_0_15_237
*1130 FILLER_0_15_249
*1131 FILLER_0_15_257
*1132 FILLER_0_15_27
*1133 FILLER_0_15_281
*1134 FILLER_0_15_293
*1135 FILLER_0_15_3
*1136 FILLER_0_15_305
*1137 FILLER_0_15_317
*1138 FILLER_0_15_329
*1139 FILLER_0_15_39
*1140 FILLER_0_15_51
*1141 FILLER_0_15_55
*1142 FILLER_0_15_57
*1143 FILLER_0_15_69
*1144 FILLER_0_15_81
*1145 FILLER_0_15_93
*1146 FILLER_0_16_109
*1147 FILLER_0_16_121
*1148 FILLER_0_16_133
*1149 FILLER_0_16_139
*1150 FILLER_0_16_141
*1151 FILLER_0_16_15
*1152 FILLER_0_16_153
*1153 FILLER_0_16_161
*1154 FILLER_0_16_182
*1155 FILLER_0_16_190
*1156 FILLER_0_16_195
*1157 FILLER_0_16_197
*1158 FILLER_0_16_225
*1159 FILLER_0_16_239
*1160 FILLER_0_16_245
*1161 FILLER_0_16_251
*1162 FILLER_0_16_253
*1163 FILLER_0_16_27
*1164 FILLER_0_16_288
*1165 FILLER_0_16_29
*1166 FILLER_0_16_3
*1167 FILLER_0_16_300
*1168 FILLER_0_16_309
*1169 FILLER_0_16_321
*1170 FILLER_0_16_333
*1171 FILLER_0_16_41
*1172 FILLER_0_16_53
*1173 FILLER_0_16_65
*1174 FILLER_0_16_77
*1175 FILLER_0_16_83
*1176 FILLER_0_16_85
*1177 FILLER_0_16_97
*1178 FILLER_0_17_105
*1179 FILLER_0_17_111
*1180 FILLER_0_17_113
*1181 FILLER_0_17_125
*1182 FILLER_0_17_137
*1183 FILLER_0_17_149
*1184 FILLER_0_17_15
*1185 FILLER_0_17_161
*1186 FILLER_0_17_169
*1187 FILLER_0_17_222
*1188 FILLER_0_17_27
*1189 FILLER_0_17_275
*1190 FILLER_0_17_279
*1191 FILLER_0_17_290
*1192 FILLER_0_17_3
*1193 FILLER_0_17_302
*1194 FILLER_0_17_314
*1195 FILLER_0_17_326
*1196 FILLER_0_17_334
*1197 FILLER_0_17_39
*1198 FILLER_0_17_51
*1199 FILLER_0_17_55
*1200 FILLER_0_17_57
*1201 FILLER_0_17_69
*1202 FILLER_0_17_81
*1203 FILLER_0_17_93
*1204 FILLER_0_18_109
*1205 FILLER_0_18_121
*1206 FILLER_0_18_133
*1207 FILLER_0_18_15
*1208 FILLER_0_18_161
*1209 FILLER_0_18_169
*1210 FILLER_0_18_189
*1211 FILLER_0_18_195
*1212 FILLER_0_18_238
*1213 FILLER_0_18_250
*1214 FILLER_0_18_265
*1215 FILLER_0_18_269
*1216 FILLER_0_18_27
*1217 FILLER_0_18_29
*1218 FILLER_0_18_293
*1219 FILLER_0_18_3
*1220 FILLER_0_18_305
*1221 FILLER_0_18_309
*1222 FILLER_0_18_321
*1223 FILLER_0_18_333
*1224 FILLER_0_18_41
*1225 FILLER_0_18_53
*1226 FILLER_0_18_65
*1227 FILLER_0_18_77
*1228 FILLER_0_18_83
*1229 FILLER_0_18_85
*1230 FILLER_0_18_97
*1231 FILLER_0_19_105
*1232 FILLER_0_19_111
*1233 FILLER_0_19_113
*1234 FILLER_0_19_125
*1235 FILLER_0_19_137
*1236 FILLER_0_19_15
*1237 FILLER_0_19_189
*1238 FILLER_0_19_195
*1239 FILLER_0_19_207
*1240 FILLER_0_19_216
*1241 FILLER_0_19_231
*1242 FILLER_0_19_243
*1243 FILLER_0_19_264
*1244 FILLER_0_19_27
*1245 FILLER_0_19_276
*1246 FILLER_0_19_281
*1247 FILLER_0_19_3
*1248 FILLER_0_19_309
*1249 FILLER_0_19_321
*1250 FILLER_0_19_333
*1251 FILLER_0_19_39
*1252 FILLER_0_19_51
*1253 FILLER_0_19_55
*1254 FILLER_0_19_57
*1255 FILLER_0_19_69
*1256 FILLER_0_19_81
*1257 FILLER_0_19_93
*1258 FILLER_0_1_105
*1259 FILLER_0_1_111
*1260 FILLER_0_1_113
*1261 FILLER_0_1_125
*1262 FILLER_0_1_137
*1263 FILLER_0_1_149
*1264 FILLER_0_1_15
*1265 FILLER_0_1_161
*1266 FILLER_0_1_167
*1267 FILLER_0_1_169
*1268 FILLER_0_1_181
*1269 FILLER_0_1_193
*1270 FILLER_0_1_205
*1271 FILLER_0_1_217
*1272 FILLER_0_1_223
*1273 FILLER_0_1_225
*1274 FILLER_0_1_237
*1275 FILLER_0_1_249
*1276 FILLER_0_1_261
*1277 FILLER_0_1_27
*1278 FILLER_0_1_273
*1279 FILLER_0_1_279
*1280 FILLER_0_1_281
*1281 FILLER_0_1_293
*1282 FILLER_0_1_3
*1283 FILLER_0_1_305
*1284 FILLER_0_1_317
*1285 FILLER_0_1_329
*1286 FILLER_0_1_39
*1287 FILLER_0_1_51
*1288 FILLER_0_1_55
*1289 FILLER_0_1_57
*1290 FILLER_0_1_69
*1291 FILLER_0_1_81
*1292 FILLER_0_1_93
*1293 FILLER_0_20_109
*1294 FILLER_0_20_121
*1295 FILLER_0_20_129
*1296 FILLER_0_20_141
*1297 FILLER_0_20_145
*1298 FILLER_0_20_15
*1299 FILLER_0_20_155
*1300 FILLER_0_20_165
*1301 FILLER_0_20_173
*1302 FILLER_0_20_195
*1303 FILLER_0_20_206
*1304 FILLER_0_20_218
*1305 FILLER_0_20_230
*1306 FILLER_0_20_239
*1307 FILLER_0_20_27
*1308 FILLER_0_20_273
*1309 FILLER_0_20_285
*1310 FILLER_0_20_29
*1311 FILLER_0_20_295
*1312 FILLER_0_20_3
*1313 FILLER_0_20_307
*1314 FILLER_0_20_309
*1315 FILLER_0_20_321
*1316 FILLER_0_20_333
*1317 FILLER_0_20_41
*1318 FILLER_0_20_53
*1319 FILLER_0_20_65
*1320 FILLER_0_20_77
*1321 FILLER_0_20_83
*1322 FILLER_0_20_85
*1323 FILLER_0_20_97
*1324 FILLER_0_21_105
*1325 FILLER_0_21_111
*1326 FILLER_0_21_113
*1327 FILLER_0_21_125
*1328 FILLER_0_21_146
*1329 FILLER_0_21_15
*1330 FILLER_0_21_169
*1331 FILLER_0_21_177
*1332 FILLER_0_21_181
*1333 FILLER_0_21_189
*1334 FILLER_0_21_210
*1335 FILLER_0_21_223
*1336 FILLER_0_21_251
*1337 FILLER_0_21_27
*1338 FILLER_0_21_279
*1339 FILLER_0_21_281
*1340 FILLER_0_21_293
*1341 FILLER_0_21_3
*1342 FILLER_0_21_305
*1343 FILLER_0_21_317
*1344 FILLER_0_21_329
*1345 FILLER_0_21_39
*1346 FILLER_0_21_51
*1347 FILLER_0_21_55
*1348 FILLER_0_21_57
*1349 FILLER_0_21_69
*1350 FILLER_0_21_81
*1351 FILLER_0_21_93
*1352 FILLER_0_22_109
*1353 FILLER_0_22_121
*1354 FILLER_0_22_129
*1355 FILLER_0_22_134
*1356 FILLER_0_22_141
*1357 FILLER_0_22_149
*1358 FILLER_0_22_15
*1359 FILLER_0_22_155
*1360 FILLER_0_22_166
*1361 FILLER_0_22_178
*1362 FILLER_0_22_190
*1363 FILLER_0_22_197
*1364 FILLER_0_22_205
*1365 FILLER_0_22_246
*1366 FILLER_0_22_257
*1367 FILLER_0_22_27
*1368 FILLER_0_22_282
*1369 FILLER_0_22_29
*1370 FILLER_0_22_3
*1371 FILLER_0_22_309
*1372 FILLER_0_22_321
*1373 FILLER_0_22_333
*1374 FILLER_0_22_41
*1375 FILLER_0_22_53
*1376 FILLER_0_22_65
*1377 FILLER_0_22_77
*1378 FILLER_0_22_83
*1379 FILLER_0_22_85
*1380 FILLER_0_22_97
*1381 FILLER_0_23_105
*1382 FILLER_0_23_111
*1383 FILLER_0_23_113
*1384 FILLER_0_23_125
*1385 FILLER_0_23_15
*1386 FILLER_0_23_158
*1387 FILLER_0_23_166
*1388 FILLER_0_23_189
*1389 FILLER_0_23_201
*1390 FILLER_0_23_213
*1391 FILLER_0_23_219
*1392 FILLER_0_23_223
*1393 FILLER_0_23_234
*1394 FILLER_0_23_27
*1395 FILLER_0_23_275
*1396 FILLER_0_23_3
*1397 FILLER_0_23_301
*1398 FILLER_0_23_313
*1399 FILLER_0_23_325
*1400 FILLER_0_23_333
*1401 FILLER_0_23_39
*1402 FILLER_0_23_51
*1403 FILLER_0_23_55
*1404 FILLER_0_23_57
*1405 FILLER_0_23_69
*1406 FILLER_0_23_81
*1407 FILLER_0_23_93
*1408 FILLER_0_24_109
*1409 FILLER_0_24_121
*1410 FILLER_0_24_129
*1411 FILLER_0_24_135
*1412 FILLER_0_24_139
*1413 FILLER_0_24_141
*1414 FILLER_0_24_149
*1415 FILLER_0_24_15
*1416 FILLER_0_24_170
*1417 FILLER_0_24_185
*1418 FILLER_0_24_191
*1419 FILLER_0_24_195
*1420 FILLER_0_24_210
*1421 FILLER_0_24_215
*1422 FILLER_0_24_227
*1423 FILLER_0_24_253
*1424 FILLER_0_24_267
*1425 FILLER_0_24_27
*1426 FILLER_0_24_279
*1427 FILLER_0_24_29
*1428 FILLER_0_24_292
*1429 FILLER_0_24_3
*1430 FILLER_0_24_304
*1431 FILLER_0_24_309
*1432 FILLER_0_24_321
*1433 FILLER_0_24_333
*1434 FILLER_0_24_41
*1435 FILLER_0_24_53
*1436 FILLER_0_24_65
*1437 FILLER_0_24_77
*1438 FILLER_0_24_83
*1439 FILLER_0_24_85
*1440 FILLER_0_24_97
*1441 FILLER_0_25_105
*1442 FILLER_0_25_111
*1443 FILLER_0_25_113
*1444 FILLER_0_25_125
*1445 FILLER_0_25_137
*1446 FILLER_0_25_143
*1447 FILLER_0_25_15
*1448 FILLER_0_25_153
*1449 FILLER_0_25_165
*1450 FILLER_0_25_169
*1451 FILLER_0_25_181
*1452 FILLER_0_25_225
*1453 FILLER_0_25_249
*1454 FILLER_0_25_261
*1455 FILLER_0_25_27
*1456 FILLER_0_25_273
*1457 FILLER_0_25_279
*1458 FILLER_0_25_281
*1459 FILLER_0_25_296
*1460 FILLER_0_25_3
*1461 FILLER_0_25_302
*1462 FILLER_0_25_312
*1463 FILLER_0_25_320
*1464 FILLER_0_25_332
*1465 FILLER_0_25_39
*1466 FILLER_0_25_51
*1467 FILLER_0_25_55
*1468 FILLER_0_25_57
*1469 FILLER_0_25_69
*1470 FILLER_0_25_81
*1471 FILLER_0_25_93
*1472 FILLER_0_26_109
*1473 FILLER_0_26_121
*1474 FILLER_0_26_127
*1475 FILLER_0_26_15
*1476 FILLER_0_26_161
*1477 FILLER_0_26_173
*1478 FILLER_0_26_185
*1479 FILLER_0_26_193
*1480 FILLER_0_26_197
*1481 FILLER_0_26_212
*1482 FILLER_0_26_234
*1483 FILLER_0_26_246
*1484 FILLER_0_26_253
*1485 FILLER_0_26_265
*1486 FILLER_0_26_27
*1487 FILLER_0_26_277
*1488 FILLER_0_26_283
*1489 FILLER_0_26_29
*1490 FILLER_0_26_3
*1491 FILLER_0_26_307
*1492 FILLER_0_26_329
*1493 FILLER_0_26_41
*1494 FILLER_0_26_53
*1495 FILLER_0_26_65
*1496 FILLER_0_26_77
*1497 FILLER_0_26_83
*1498 FILLER_0_26_85
*1499 FILLER_0_26_97
*1500 FILLER_0_27_105
*1501 FILLER_0_27_111
*1502 FILLER_0_27_113
*1503 FILLER_0_27_121
*1504 FILLER_0_27_142
*1505 FILLER_0_27_15
*1506 FILLER_0_27_161
*1507 FILLER_0_27_167
*1508 FILLER_0_27_176
*1509 FILLER_0_27_198
*1510 FILLER_0_27_210
*1511 FILLER_0_27_218
*1512 FILLER_0_27_222
*1513 FILLER_0_27_246
*1514 FILLER_0_27_257
*1515 FILLER_0_27_27
*1516 FILLER_0_27_274
*1517 FILLER_0_27_286
*1518 FILLER_0_27_290
*1519 FILLER_0_27_296
*1520 FILLER_0_27_3
*1521 FILLER_0_27_321
*1522 FILLER_0_27_333
*1523 FILLER_0_27_39
*1524 FILLER_0_27_51
*1525 FILLER_0_27_55
*1526 FILLER_0_27_57
*1527 FILLER_0_27_69
*1528 FILLER_0_27_81
*1529 FILLER_0_27_93
*1530 FILLER_0_28_109
*1531 FILLER_0_28_121
*1532 FILLER_0_28_125
*1533 FILLER_0_28_129
*1534 FILLER_0_28_137
*1535 FILLER_0_28_141
*1536 FILLER_0_28_147
*1537 FILLER_0_28_15
*1538 FILLER_0_28_151
*1539 FILLER_0_28_163
*1540 FILLER_0_28_197
*1541 FILLER_0_28_204
*1542 FILLER_0_28_213
*1543 FILLER_0_28_225
*1544 FILLER_0_28_237
*1545 FILLER_0_28_27
*1546 FILLER_0_28_29
*1547 FILLER_0_28_291
*1548 FILLER_0_28_3
*1549 FILLER_0_28_306
*1550 FILLER_0_28_309
*1551 FILLER_0_28_321
*1552 FILLER_0_28_333
*1553 FILLER_0_28_41
*1554 FILLER_0_28_53
*1555 FILLER_0_28_65
*1556 FILLER_0_28_77
*1557 FILLER_0_28_83
*1558 FILLER_0_28_85
*1559 FILLER_0_28_97
*1560 FILLER_0_29_105
*1561 FILLER_0_29_111
*1562 FILLER_0_29_113
*1563 FILLER_0_29_137
*1564 FILLER_0_29_15
*1565 FILLER_0_29_185
*1566 FILLER_0_29_189
*1567 FILLER_0_29_221
*1568 FILLER_0_29_225
*1569 FILLER_0_29_237
*1570 FILLER_0_29_249
*1571 FILLER_0_29_257
*1572 FILLER_0_29_265
*1573 FILLER_0_29_27
*1574 FILLER_0_29_273
*1575 FILLER_0_29_290
*1576 FILLER_0_29_3
*1577 FILLER_0_29_302
*1578 FILLER_0_29_314
*1579 FILLER_0_29_326
*1580 FILLER_0_29_334
*1581 FILLER_0_29_39
*1582 FILLER_0_29_51
*1583 FILLER_0_29_55
*1584 FILLER_0_29_57
*1585 FILLER_0_29_69
*1586 FILLER_0_29_81
*1587 FILLER_0_29_93
*1588 FILLER_0_2_109
*1589 FILLER_0_2_121
*1590 FILLER_0_2_133
*1591 FILLER_0_2_139
*1592 FILLER_0_2_141
*1593 FILLER_0_2_15
*1594 FILLER_0_2_153
*1595 FILLER_0_2_165
*1596 FILLER_0_2_177
*1597 FILLER_0_2_189
*1598 FILLER_0_2_195
*1599 FILLER_0_2_197
*1600 FILLER_0_2_209
*1601 FILLER_0_2_221
*1602 FILLER_0_2_233
*1603 FILLER_0_2_245
*1604 FILLER_0_2_251
*1605 FILLER_0_2_253
*1606 FILLER_0_2_265
*1607 FILLER_0_2_27
*1608 FILLER_0_2_277
*1609 FILLER_0_2_289
*1610 FILLER_0_2_29
*1611 FILLER_0_2_3
*1612 FILLER_0_2_301
*1613 FILLER_0_2_307
*1614 FILLER_0_2_309
*1615 FILLER_0_2_321
*1616 FILLER_0_2_333
*1617 FILLER_0_2_41
*1618 FILLER_0_2_53
*1619 FILLER_0_2_65
*1620 FILLER_0_2_77
*1621 FILLER_0_2_83
*1622 FILLER_0_2_85
*1623 FILLER_0_2_97
*1624 FILLER_0_30_109
*1625 FILLER_0_30_117
*1626 FILLER_0_30_141
*1627 FILLER_0_30_148
*1628 FILLER_0_30_15
*1629 FILLER_0_30_152
*1630 FILLER_0_30_166
*1631 FILLER_0_30_183
*1632 FILLER_0_30_187
*1633 FILLER_0_30_195
*1634 FILLER_0_30_197
*1635 FILLER_0_30_201
*1636 FILLER_0_30_215
*1637 FILLER_0_30_241
*1638 FILLER_0_30_253
*1639 FILLER_0_30_265
*1640 FILLER_0_30_27
*1641 FILLER_0_30_273
*1642 FILLER_0_30_288
*1643 FILLER_0_30_29
*1644 FILLER_0_30_3
*1645 FILLER_0_30_305
*1646 FILLER_0_30_312
*1647 FILLER_0_30_324
*1648 FILLER_0_30_332
*1649 FILLER_0_30_41
*1650 FILLER_0_30_53
*1651 FILLER_0_30_65
*1652 FILLER_0_30_77
*1653 FILLER_0_30_83
*1654 FILLER_0_30_85
*1655 FILLER_0_30_97
*1656 FILLER_0_31_105
*1657 FILLER_0_31_111
*1658 FILLER_0_31_113
*1659 FILLER_0_31_137
*1660 FILLER_0_31_15
*1661 FILLER_0_31_169
*1662 FILLER_0_31_180
*1663 FILLER_0_31_186
*1664 FILLER_0_31_218
*1665 FILLER_0_31_246
*1666 FILLER_0_31_266
*1667 FILLER_0_31_27
*1668 FILLER_0_31_277
*1669 FILLER_0_31_288
*1670 FILLER_0_31_292
*1671 FILLER_0_31_3
*1672 FILLER_0_31_304
*1673 FILLER_0_31_325
*1674 FILLER_0_31_333
*1675 FILLER_0_31_39
*1676 FILLER_0_31_51
*1677 FILLER_0_31_55
*1678 FILLER_0_31_57
*1679 FILLER_0_31_69
*1680 FILLER_0_31_81
*1681 FILLER_0_31_93
*1682 FILLER_0_32_109
*1683 FILLER_0_32_141
*1684 FILLER_0_32_15
*1685 FILLER_0_32_153
*1686 FILLER_0_32_165
*1687 FILLER_0_32_183
*1688 FILLER_0_32_195
*1689 FILLER_0_32_197
*1690 FILLER_0_32_222
*1691 FILLER_0_32_236
*1692 FILLER_0_32_267
*1693 FILLER_0_32_27
*1694 FILLER_0_32_271
*1695 FILLER_0_32_29
*1696 FILLER_0_32_3
*1697 FILLER_0_32_306
*1698 FILLER_0_32_309
*1699 FILLER_0_32_321