*SPEF "ieee 1481-1999"
*DESIGN "tt_um_gak25_8bit_cpu_ext"
*DATE "05:47:15 Friday April 19, 2024"
*VENDOR "The OpenROAD Project"
*PROGRAM "OpenROAD"
*VERSION "0889970d1790a2617e69f253221b8bd7626e51dc"
*DESIGN_FLOW "NAME_SCOPE LOCAL" "PIN_CAP NONE"
*DIVIDER /
*DELIMITER :
*BUS_DELIMITER []
*T_UNIT 1 NS
*C_UNIT 1 PF
*R_UNIT 1 OHM
*L_UNIT 1 HENRY

*NAME_MAP
*3 clk
*4 ena
*5 rst_n
*6 ui_in[0]
*7 ui_in[1]
*8 ui_in[2]
*9 ui_in[3]
*10 ui_in[4]
*11 ui_in[5]
*12 ui_in[6]
*13 ui_in[7]
*14 uio_in[0]
*15 uio_in[1]
*16 uio_in[2]
*17 uio_in[3]
*18 uio_in[4]
*19 uio_in[5]
*20 uio_in[6]
*21 uio_in[7]
*22 net37
*23 net38
*24 net39
*25 net40
*26 net41
*27 net42
*28 net43
*29 net44
*30 net45
*31 net46
*32 net47
*33 net48
*34 net49
*35 net50
*36 net51
*37 net52
*38 uo_out[0]
*39 uo_out[1]
*40 uo_out[2]
*41 uo_out[3]
*42 uo_out[4]
*43 uo_out[5]
*44 uo_out[6]
*45 uo_out[7]
*46 RF1\.reg_data\[0\]\[0\]
*47 RF1\.reg_data\[0\]\[1\]
*48 RF1\.reg_data\[0\]\[2\]
*49 RF1\.reg_data\[0\]\[3\]
*50 RF1\.reg_data\[0\]\[4\]
*51 RF1\.reg_data\[0\]\[5\]
*52 RF1\.reg_data\[0\]\[6\]
*53 RF1\.reg_data\[0\]\[7\]
*54 RF1\.reg_data\[10\]\[0\]
*55 RF1\.reg_data\[10\]\[1\]
*56 RF1\.reg_data\[10\]\[2\]
*57 RF1\.reg_data\[10\]\[3\]
*58 RF1\.reg_data\[10\]\[4\]
*59 RF1\.reg_data\[10\]\[5\]
*60 RF1\.reg_data\[10\]\[6\]
*61 RF1\.reg_data\[10\]\[7\]
*62 RF1\.reg_data\[11\]\[0\]
*63 RF1\.reg_data\[11\]\[1\]
*64 RF1\.reg_data\[11\]\[2\]
*65 RF1\.reg_data\[11\]\[3\]
*66 RF1\.reg_data\[11\]\[4\]
*67 RF1\.reg_data\[11\]\[5\]
*68 RF1\.reg_data\[11\]\[6\]
*69 RF1\.reg_data\[11\]\[7\]
*70 RF1\.reg_data\[12\]\[0\]
*71 RF1\.reg_data\[12\]\[1\]
*72 RF1\.reg_data\[12\]\[2\]
*73 RF1\.reg_data\[12\]\[3\]
*74 RF1\.reg_data\[12\]\[4\]
*75 RF1\.reg_data\[12\]\[5\]
*76 RF1\.reg_data\[12\]\[6\]
*77 RF1\.reg_data\[12\]\[7\]
*78 RF1\.reg_data\[13\]\[0\]
*79 RF1\.reg_data\[13\]\[1\]
*80 RF1\.reg_data\[13\]\[2\]
*81 RF1\.reg_data\[13\]\[3\]
*82 RF1\.reg_data\[13\]\[4\]
*83 RF1\.reg_data\[13\]\[5\]
*84 RF1\.reg_data\[13\]\[6\]
*85 RF1\.reg_data\[13\]\[7\]
*86 RF1\.reg_data\[1\]\[0\]
*87 RF1\.reg_data\[1\]\[1\]
*88 RF1\.reg_data\[1\]\[2\]
*89 RF1\.reg_data\[1\]\[3\]
*90 RF1\.reg_data\[1\]\[4\]
*91 RF1\.reg_data\[1\]\[5\]
*92 RF1\.reg_data\[1\]\[6\]
*93 RF1\.reg_data\[1\]\[7\]
*94 RF1\.reg_data\[2\]\[0\]
*95 RF1\.reg_data\[2\]\[1\]
*96 RF1\.reg_data\[2\]\[2\]
*97 RF1\.reg_data\[2\]\[3\]
*98 RF1\.reg_data\[2\]\[4\]
*99 RF1\.reg_data\[2\]\[5\]
*100 RF1\.reg_data\[2\]\[6\]
*101 RF1\.reg_data\[2\]\[7\]
*102 RF1\.reg_data\[3\]\[0\]
*103 RF1\.reg_data\[3\]\[1\]
*104 RF1\.reg_data\[3\]\[2\]
*105 RF1\.reg_data\[3\]\[3\]
*106 RF1\.reg_data\[3\]\[4\]
*107 RF1\.reg_data\[3\]\[5\]
*108 RF1\.reg_data\[3\]\[6\]
*109 RF1\.reg_data\[3\]\[7\]
*110 RF1\.reg_data\[4\]\[0\]
*111 RF1\.reg_data\[4\]\[1\]
*112 RF1\.reg_data\[4\]\[2\]
*113 RF1\.reg_data\[4\]\[3\]
*114 RF1\.reg_data\[4\]\[4\]
*115 RF1\.reg_data\[4\]\[5\]
*116 RF1\.reg_data\[4\]\[6\]
*117 RF1\.reg_data\[4\]\[7\]
*118 RF1\.reg_data\[5\]\[0\]
*119 RF1\.reg_data\[5\]\[1\]
*120 RF1\.reg_data\[5\]\[2\]
*121 RF1\.reg_data\[5\]\[3\]
*122 RF1\.reg_data\[5\]\[4\]
*123 RF1\.reg_data\[5\]\[5\]
*124 RF1\.reg_data\[5\]\[6\]
*125 RF1\.reg_data\[5\]\[7\]
*126 RF1\.reg_data\[6\]\[0\]
*127 RF1\.reg_data\[6\]\[1\]
*128 RF1\.reg_data\[6\]\[2\]
*129 RF1\.reg_data\[6\]\[3\]
*130 RF1\.reg_data\[6\]\[4\]
*131 RF1\.reg_data\[6\]\[5\]
*132 RF1\.reg_data\[6\]\[6\]
*133 RF1\.reg_data\[6\]\[7\]
*134 RF1\.reg_data\[7\]\[0\]
*135 RF1\.reg_data\[7\]\[1\]
*136 RF1\.reg_data\[7\]\[2\]
*137 RF1\.reg_data\[7\]\[3\]
*138 RF1\.reg_data\[7\]\[4\]
*139 RF1\.reg_data\[7\]\[5\]
*140 RF1\.reg_data\[7\]\[6\]
*141 RF1\.reg_data\[7\]\[7\]
*142 RF1\.reg_data\[8\]\[0\]
*143 RF1\.reg_data\[8\]\[1\]
*144 RF1\.reg_data\[8\]\[2\]
*145 RF1\.reg_data\[8\]\[3\]
*146 RF1\.reg_data\[8\]\[4\]
*147 RF1\.reg_data\[8\]\[5\]
*148 RF1\.reg_data\[8\]\[6\]
*149 RF1\.reg_data\[8\]\[7\]
*150 RF1\.reg_data\[9\]\[0\]
*151 RF1\.reg_data\[9\]\[1\]
*152 RF1\.reg_data\[9\]\[2\]
*153 RF1\.reg_data\[9\]\[3\]
*154 RF1\.reg_data\[9\]\[4\]
*155 RF1\.reg_data\[9\]\[5\]
*156 RF1\.reg_data\[9\]\[6\]
*157 RF1\.reg_data\[9\]\[7\]
*158 RF1\.w_d\[0\]
*159 RF1\.w_d\[1\]
*160 RF1\.w_d\[2\]
*161 RF1\.w_d\[3\]
*162 RF1\.w_d\[4\]
*163 RF1\.w_d\[5\]
*164 RF1\.w_d\[6\]
*165 RF1\.w_d\[7\]
*166 _0000_
*167 _0001_
*168 _0002_
*169 _0003_
*170 _0004_
*171 _0005_
*172 _0006_
*173 _0007_
*174 _0008_
*175 _0009_
*176 _0010_
*177 _0011_
*178 _0012_
*179 _0013_
*180 _0014_
*181 _0015_
*182 _0016_
*183 _0017_
*184 _0018_
*185 _0019_
*186 _0020_
*187 _0021_
*188 _0022_
*189 _0023_
*190 _0024_
*191 _0025_
*192 _0026_
*193 _0027_
*194 _0028_
*195 _0029_
*196 _0030_
*197 _0031_
*198 _0032_
*199 _0033_
*200 _0034_
*201 _0035_
*202 _0036_
*203 _0037_
*204 _0038_
*205 _0039_
*206 _0040_
*207 _0041_
*208 _0042_
*209 _0043_
*210 _0044_
*211 _0045_
*212 _0046_
*213 _0047_
*214 _0048_
*215 _0049_
*216 _0050_
*217 _0051_
*218 _0052_
*219 _0053_
*220 _0054_
*221 _0055_
*222 _0056_
*223 _0057_
*224 _0058_
*225 _0059_
*226 _0060_
*227 _0061_
*228 _0062_
*229 _0063_
*230 _0064_
*231 _0065_
*232 _0066_
*233 _0067_
*234 _0068_
*235 _0069_
*236 _0070_
*237 _0071_
*238 _0072_
*239 _0073_
*240 _0074_
*241 _0075_
*242 _0076_
*243 _0077_
*244 _0078_
*245 _0079_
*246 _0080_
*247 _0081_
*248 _0082_
*249 _0083_
*250 _0084_
*251 _0085_
*252 _0086_
*253 _0087_
*254 _0088_
*255 _0089_
*256 _0090_
*257 _0091_
*258 _0092_
*259 _0093_
*260 _0094_
*261 _0095_
*262 _0096_
*263 _0097_
*264 _0098_
*265 _0099_
*266 _0100_
*267 _0101_
*268 _0102_
*269 _0103_
*270 _0104_
*271 _0105_
*272 _0106_
*273 _0107_
*274 _0108_
*275 _0109_
*276 _0110_
*277 _0111_
*278 _0112_
*279 _0113_
*280 _0114_
*281 _0115_
*282 _0116_
*283 _0117_
*284 _0118_
*285 _0119_
*286 _0120_
*287 _0121_
*288 _0122_
*289 _0123_
*290 _0124_
*291 _0125_
*292 _0126_
*293 _0127_
*294 _0128_
*295 _0129_
*296 _0130_
*297 _0131_
*298 _0132_
*299 _0133_
*300 _0134_
*301 _0135_
*302 _0136_
*303 _0137_
*304 _0138_
*305 _0139_
*306 _0140_
*307 _0141_
*308 _0142_
*309 _0143_
*310 _0144_
*311 _0145_
*312 _0146_
*313 _0147_
*314 _0148_
*315 _0149_
*316 _0150_
*317 _0151_
*318 _0152_
*319 _0153_
*320 _0154_
*321 _0155_
*322 _0156_
*323 _0157_
*324 _0158_
*325 _0159_
*326 _0160_
*327 _0161_
*328 _0162_
*329 _0163_
*330 _0164_
*331 _0165_
*332 _0166_
*333 _0167_
*334 _0168_
*335 _0169_
*336 _0170_
*337 _0171_
*338 _0172_
*339 _0173_
*340 _0174_
*341 _0175_
*342 _0176_
*343 _0177_
*344 _0178_
*345 _0179_
*346 _0180_
*347 _0181_
*348 _0182_
*349 _0183_
*350 _0184_
*351 _0185_
*352 _0186_
*353 _0187_
*354 _0188_
*355 _0189_
*356 _0190_
*357 _0191_
*358 _0192_
*359 _0193_
*360 _0194_
*361 _0195_
*362 _0196_
*363 _0197_
*364 _0198_
*365 _0199_
*366 _0200_
*367 _0201_
*368 _0202_
*369 _0203_
*370 _0204_
*371 _0205_
*372 _0206_
*373 _0207_
*374 _0208_
*375 _0209_
*376 _0210_
*377 _0211_
*378 _0212_
*379 _0213_
*380 _0214_
*381 _0215_
*382 _0216_
*383 _0217_
*384 _0218_
*385 _0219_
*386 _0220_
*387 _0221_
*388 _0222_
*389 _0223_
*390 _0224_
*391 _0225_
*392 _0226_
*393 _0227_
*394 _0228_
*395 _0229_
*396 _0230_
*397 _0231_
*398 _0232_
*399 _0233_
*400 _0234_
*401 _0235_
*402 _0236_
*403 _0237_
*404 _0238_
*405 _0239_
*406 _0240_
*407 _0241_
*408 _0242_
*409 _0243_
*410 _0244_
*411 _0245_
*412 _0246_
*413 _0247_
*414 _0248_
*415 _0249_
*416 _0250_
*417 _0251_
*418 _0252_
*419 _0253_
*420 _0254_
*421 _0255_
*422 _0256_
*423 _0257_
*424 _0258_
*425 _0259_
*426 _0260_
*427 _0261_
*428 _0262_
*429 _0263_
*430 _0264_
*431 _0265_
*432 _0266_
*433 _0267_
*434 _0268_
*435 _0269_
*436 _0270_
*437 _0271_
*438 _0272_
*439 _0273_
*440 _0274_
*441 _0275_
*442 _0276_
*443 _0277_
*444 _0278_
*445 _0279_
*446 _0280_
*447 _0281_
*448 _0282_
*449 _0283_
*450 _0284_
*451 _0285_
*452 _0286_
*453 _0287_
*454 _0288_
*455 _0289_
*456 _0290_
*457 _0291_
*458 _0292_
*459 _0293_
*460 _0294_
*461 _0295_
*462 _0296_
*463 _0297_
*464 _0298_
*465 _0299_
*466 _0300_
*467 _0301_
*468 _0302_
*469 _0303_
*470 _0304_
*471 _0305_
*472 _0306_
*473 _0307_
*474 _0308_
*475 _0309_
*476 _0310_
*477 _0311_
*478 _0312_
*479 _0313_
*480 _0314_
*481 _0315_
*482 _0316_
*483 _0317_
*484 _0318_
*485 _0319_
*486 _0320_
*487 _0321_
*488 _0322_
*489 _0323_
*490 _0324_
*491 _0325_
*492 _0326_
*493 _0327_
*494 _0328_
*495 _0329_
*496 _0330_
*497 _0331_
*498 _0332_
*499 _0333_
*500 _0334_
*501 _0335_
*502 _0336_
*503 _0337_
*504 _0338_
*505 _0339_
*506 _0340_
*507 _0341_
*508 _0342_
*509 _0343_
*510 _0344_
*511 _0345_
*512 _0346_
*513 _0347_
*514 _0348_
*515 _0349_
*516 _0350_
*517 _0351_
*518 _0352_
*519 _0353_
*520 _0354_
*521 _0355_
*522 _0356_
*523 _0357_
*524 _0358_
*525 _0359_
*526 _0360_
*527 _0361_
*528 _0362_
*529 _0363_
*530 _0364_
*531 _0365_
*532 _0366_
*533 _0367_
*534 _0368_
*535 _0369_
*536 _0370_
*537 _0371_
*538 _0372_
*539 _0373_
*540 _0374_
*541 _0375_
*542 _0376_
*543 _0377_
*544 _0378_
*545 _0379_
*546 _0380_
*547 _0381_
*548 _0382_
*549 _0383_
*550 _0384_
*551 _0385_
*552 _0386_
*553 _0387_
*554 _0388_
*555 _0389_
*556 _0390_
*557 _0391_
*558 _0392_
*559 _0393_
*560 _0394_
*561 _0395_
*562 _0396_
*563 _0397_
*564 _0398_
*565 _0399_
*566 _0400_
*567 _0401_
*568 _0402_
*569 _0403_
*570 _0404_
*571 _0405_
*572 _0406_
*573 _0407_
*574 _0408_
*575 _0409_
*576 _0410_
*577 _0411_
*578 _0412_
*579 _0413_
*580 _0414_
*581 _0415_
*582 _0416_
*583 _0417_
*584 _0418_
*585 _0419_
*586 _0420_
*587 _0421_
*588 _0422_
*589 _0423_
*590 _0424_
*591 _0425_
*592 _0426_
*593 _0427_
*594 _0428_
*595 _0429_
*596 _0430_
*597 _0431_
*598 _0432_
*599 _0433_
*600 _0434_
*601 _0435_
*602 _0436_
*603 _0437_
*604 _0438_
*605 _0439_
*606 _0440_
*607 _0441_
*608 _0442_
*609 _0443_
*610 _0444_
*611 _0445_
*612 _0446_
*613 _0447_
*614 _0448_
*615 _0449_
*616 _0450_
*617 _0451_
*618 _0452_
*619 _0453_
*620 _0454_
*621 _0455_
*622 _0456_
*623 _0457_
*624 _0458_
*625 _0459_
*626 _0460_
*627 _0461_
*628 _0462_
*629 _0463_
*630 _0464_
*631 _0465_
*632 _0466_
*633 _0467_
*634 _0468_
*635 _0469_
*636 _0470_
*637 _0471_
*638 _0472_
*639 _0473_
*640 _0474_
*641 _0475_
*642 _0476_
*643 _0477_
*644 _0478_
*645 _0479_
*646 _0480_
*647 _0481_
*648 _0482_
*649 _0483_
*650 _0484_
*651 _0485_
*652 _0486_
*653 _0487_
*654 _0488_
*655 _0489_
*656 _0490_
*657 _0491_
*658 _0492_
*659 _0493_
*660 _0494_
*661 _0495_
*662 _0496_
*663 _0497_
*664 _0498_
*665 _0499_
*666 _0500_
*667 _0501_
*668 _0502_
*669 _0503_
*670 _0504_
*671 _0505_
*672 _0506_
*673 _0507_
*674 _0508_
*675 _0509_
*676 _0510_
*677 _0511_
*678 _0512_
*679 _0513_
*680 _0514_
*681 _0515_
*682 _0516_
*683 _0517_
*684 _0518_
*685 _0519_
*686 _0520_
*687 _0521_
*688 _0522_
*689 _0523_
*690 _0524_
*691 _0525_
*692 _0526_
*693 _0527_
*694 _0528_
*695 _0529_
*696 _0530_
*697 _0531_
*698 _0532_
*699 _0533_
*700 _0534_
*701 _0535_
*702 _0536_
*703 _0537_
*704 _0538_
*705 _0539_
*706 _0540_
*707 _0541_
*708 _0542_
*709 _0543_
*710 _0544_
*711 _0545_
*712 _0546_
*713 _0547_
*714 _0548_
*715 _0549_
*716 _0550_
*717 _0551_
*718 _0552_
*719 _0553_
*720 _0554_
*721 _0555_
*722 _0556_
*723 _0557_
*724 _0558_
*725 _0559_
*726 _0560_
*727 _0561_
*728 _0562_
*729 _0563_
*730 _0564_
*731 _0565_
*732 _0566_
*733 _0567_
*734 _0568_
*735 _0569_
*736 _0570_
*737 _0571_
*738 _0572_
*739 _0573_
*740 _0574_
*741 _0575_
*742 _0576_
*743 _0577_
*744 _0578_
*745 _0579_
*746 _0580_
*747 _0581_
*748 _0582_
*749 _0583_
*750 _0584_
*751 _0585_
*752 _0586_
*753 _0587_
*754 _0588_
*755 _0589_
*756 _0590_
*757 _0591_
*758 _0592_
*759 _0593_
*760 _0594_
*761 _0595_
*762 _0596_
*763 _0597_
*764 _0598_
*765 _0599_
*766 _0600_
*767 _0601_
*768 _0602_
*769 _0603_
*770 _0604_
*771 _0605_
*772 _0606_
*773 _0607_
*774 _0608_
*775 _0609_
*776 _0610_
*777 _0611_
*778 _0612_
*779 _0613_
*780 _0614_
*781 _0615_
*782 _0616_
*783 _0617_
*784 _0618_
*785 _0619_
*786 _0620_
*787 _0621_
*788 _0622_
*789 _0623_
*790 _0624_
*791 _0625_
*792 _0626_
*793 _0627_
*794 _0628_
*795 _0629_
*796 _0630_
*797 _0631_
*798 _0632_
*799 _0633_
*800 _0634_
*801 _0635_
*802 _0636_
*803 _0637_
*804 _0638_
*805 _0639_
*806 _0640_
*807 _0641_
*808 _0642_
*809 _0643_
*810 _0644_
*811 _0645_
*812 _0646_
*813 _0647_
*814 _0648_
*815 _0649_
*816 _0650_
*817 _0651_
*818 _0652_
*819 _0653_
*820 _0654_
*821 _0655_
*822 _0656_
*823 _0657_
*824 _0658_
*825 _0659_
*826 _0660_
*827 _0661_
*828 _0662_
*829 _0663_
*830 _0664_
*831 _0665_
*832 _0666_
*833 _0667_
*834 _0668_
*835 _0669_
*836 _0670_
*837 _0671_
*838 _0672_
*839 _0673_
*840 _0674_
*841 _0675_
*842 _0676_
*843 _0677_
*844 _0678_
*845 _0679_
*846 _0680_
*847 _0681_
*848 _0682_
*849 _0683_
*850 _0684_
*851 _0685_
*852 _0686_
*853 _0687_
*854 _0688_
*855 _0689_
*856 _0690_
*857 _0691_
*858 _0692_
*859 _0693_
*860 _0694_
*861 _0695_
*862 _0696_
*863 _0697_
*864 _0698_
*865 _0699_
*866 _0700_
*867 _0701_
*868 _0702_
*869 _0703_
*870 _0704_
*871 _0705_
*872 _0706_
*873 _0707_
*874 _0708_
*875 _0709_
*876 _0710_
*877 _0711_
*878 _0712_
*879 _0713_
*880 _0714_
*881 _0715_
*882 _0716_
*883 _0717_
*884 _0718_
*885 _0719_
*886 _0720_
*887 _0721_
*888 _0722_
*889 _0723_
*890 _0724_
*891 _0725_
*892 _0726_
*893 _0727_
*894 _0728_
*895 _0729_
*896 _0730_
*897 _0731_
*898 _0732_
*899 _0733_
*900 _0734_
*901 _0735_
*902 _0736_
*903 _0737_
*904 _0738_
*905 _0739_
*906 _0740_
*907 _0741_
*908 _0742_
*909 _0743_
*910 _0744_
*911 _0745_
*912 _0746_
*913 _0747_
*914 _0748_
*915 _0749_
*916 _0750_
*917 _0751_
*918 _0752_
*919 _0753_
*920 _0754_
*921 _0755_
*922 _0756_
*923 _0757_
*924 _0758_
*925 _0759_
*926 _0760_
*927 _0761_
*928 _0762_
*929 _0763_
*930 _0764_
*931 _0765_
*932 _0766_
*933 _0767_
*934 _0768_
*935 _0769_
*936 _0770_
*937 _0771_
*938 _0772_
*939 _0773_
*940 _0774_
*941 _0775_
*942 _0776_
*943 _0777_
*944 _0778_
*945 _0779_
*946 _0780_
*947 _0781_
*948 _0782_
*949 _0783_
*950 _0784_
*951 _0785_
*952 _0786_
*953 _0787_
*954 _0788_
*955 _0789_
*956 _0790_
*957 _0791_
*958 _0792_
*959 _0793_
*960 _0794_
*961 _0795_
*962 _0796_
*963 _0797_
*964 _0798_
*965 _0799_
*966 _0800_
*967 _0801_
*968 _0802_
*969 _0803_
*970 _0804_
*971 _0805_
*972 _0806_
*973 _0807_
*974 _0808_
*975 _0809_
*976 _0810_
*977 _0811_
*978 _0812_
*979 _0813_
*980 _0814_
*981 _0815_
*982 _0816_
*983 _0817_
*984 _0818_
*985 _0819_
*986 _0820_
*987 _0821_
*988 _0822_
*989 _0823_
*990 _0824_
*991 _0825_
*992 _0826_
*993 _0827_
*994 _0828_
*995 _0829_
*996 _0830_
*997 _0831_
*998 _0832_
*999 _0833_
*1000 _0834_
*1001 _0835_
*1002 _0836_
*1003 _0837_
*1004 _0838_
*1005 _0839_
*1006 _0840_
*1007 _0841_
*1008 _0842_
*1009 _0843_
*1010 _0844_
*1011 _0845_
*1012 _0846_
*1013 _0847_
*1014 _0848_
*1015 _0849_
*1016 _0850_
*1017 _0851_
*1018 _0852_
*1019 _0853_
*1020 _0854_
*1021 _0855_
*1022 _0856_
*1023 _0857_
*1024 _0858_
*1025 _0859_
*1026 _0860_
*1027 _0861_
*1028 _0862_
*1029 _0863_
*1030 _0864_
*1031 _0865_
*1032 _0866_
*1033 _0867_
*1034 _0868_
*1035 _0869_
*1036 _0870_
*1037 _0871_
*1038 _0872_
*1039 _0873_
*1040 _0874_
*1041 _0875_
*1042 _0876_
*1043 _0877_
*1044 _0878_
*1045 _0879_
*1046 _0880_
*1047 _0881_
*1048 _0882_
*1049 _0883_
*1050 _0884_
*1051 _0885_
*1052 _0886_
*1053 _0887_
*1054 _0888_
*1055 _0889_
*1056 _0890_
*1057 _0891_
*1058 _0892_
*1059 _0893_
*1060 _0894_
*1061 _0895_
*1062 _0896_
*1063 _0897_
*1064 _0898_
*1065 _0899_
*1066 _0900_
*1067 _0901_
*1068 _0902_
*1069 _0903_
*1070 _0904_
*1071 _0905_
*1072 _0906_
*1073 _0907_
*1074 _0908_
*1075 _0909_
*1076 _0910_
*1077 _0911_
*1078 _0912_
*1079 _0913_
*1080 _0914_
*1081 _0915_
*1082 _0916_
*1083 _0917_
*1084 _0918_
*1085 _0919_
*1086 _0920_
*1087 _0921_
*1088 _0922_
*1089 _0923_
*1090 _0924_
*1091 _0925_
*1092 _0926_
*1093 _0927_
*1094 _0928_
*1095 _0929_
*1096 _0930_
*1097 _0931_
*1098 _0932_
*1099 _0933_
*1100 _0934_
*1101 _0935_
*1102 _0936_
*1103 _0937_
*1104 _0938_
*1105 _0939_
*1106 _0940_
*1107 _0941_
*1108 _0942_
*1109 _0943_
*1110 _0944_
*1111 _0945_
*1112 _0946_
*1113 _0947_
*1114 _0948_
*1115 _0949_
*1116 _0950_
*1117 _0951_
*1118 _0952_
*1119 _0953_
*1120 _0954_
*1121 _0955_
*1122 _0956_
*1123 _0957_
*1124 _0958_
*1125 _0959_
*1126 clknet_0_clk
*1127 clknet_4_0_0_clk
*1128 clknet_4_10_0_clk
*1129 clknet_4_11_0_clk
*1130 clknet_4_12_0_clk
*1131 clknet_4_13_0_clk
*1132 clknet_4_14_0_clk
*1133 clknet_4_15_0_clk
*1134 clknet_4_1_0_clk
*1135 clknet_4_2_0_clk
*1136 clknet_4_3_0_clk
*1137 clknet_4_4_0_clk
*1138 clknet_4_5_0_clk
*1139 clknet_4_6_0_clk
*1140 clknet_4_7_0_clk
*1141 clknet_4_8_0_clk
*1142 clknet_4_9_0_clk
*1143 net1
*1144 net10
*1145 net11
*1146 net12
*1147 net13
*1148 net14
*1149 net15
*1150 net16
*1151 net17
*1152 net18
*1153 net19
*1154 net2
*1155 net20
*1156 net21
*1157 net22
*1158 net23
*1159 net24
*1160 net25
*1161 net26
*1162 net27
*1163 net28
*1164 net29
*1165 net3
*1166 net30
*1167 net31
*1168 net32
*1169 net33
*1170 net34
*1171 net35
*1172 net36
*1173 net4
*1174 net5
*1175 net53
*1176 net54
*1177 net55
*1178 net56
*1179 net57
*1180 net58
*1181 net59
*1182 net6
*1183 net7
*1184 net8
*1185 net9
*1186 processor_stat
*1187 FILLER_0_0_109
*1188 FILLER_0_0_113
*1189 FILLER_0_0_125
*1190 FILLER_0_0_137
*1191 FILLER_0_0_141
*1192 FILLER_0_0_15
*1193 FILLER_0_0_153
*1194 FILLER_0_0_165
*1195 FILLER_0_0_169
*1196 FILLER_0_0_181
*1197 FILLER_0_0_193
*1198 FILLER_0_0_197
*1199 FILLER_0_0_209
*1200 FILLER_0_0_221
*1201 FILLER_0_0_225
*1202 FILLER_0_0_237
*1203 FILLER_0_0_249
*1204 FILLER_0_0_253
*1205 FILLER_0_0_265
*1206 FILLER_0_0_27
*1207 FILLER_0_0_277
*1208 FILLER_0_0_281
*1209 FILLER_0_0_29
*1210 FILLER_0_0_293
*1211 FILLER_0_0_3
*1212 FILLER_0_0_305
*1213 FILLER_0_0_309
*1214 FILLER_0_0_321
*1215 FILLER_0_0_333
*1216 FILLER_0_0_41
*1217 FILLER_0_0_53
*1218 FILLER_0_0_57
*1219 FILLER_0_0_69
*1220 FILLER_0_0_81
*1221 FILLER_0_0_85
*1222 FILLER_0_0_97
*1223 FILLER_0_10_109
*1224 FILLER_0_10_121
*1225 FILLER_0_10_133
*1226 FILLER_0_10_139
*1227 FILLER_0_10_141
*1228 FILLER_0_10_15
*1229 FILLER_0_10_153
*1230 FILLER_0_10_165
*1231 FILLER_0_10_177
*1232 FILLER_0_10_189
*1233 FILLER_0_10_195
*1234 FILLER_0_10_197
*1235 FILLER_0_10_209
*1236 FILLER_0_10_221
*1237 FILLER_0_10_229
*1238 FILLER_0_10_27
*1239 FILLER_0_10_29
*1240 FILLER_0_10_3
*1241 FILLER_0_10_305
*1242 FILLER_0_10_318
*1243 FILLER_0_10_330
*1244 FILLER_0_10_334
*1245 FILLER_0_10_41
*1246 FILLER_0_10_53
*1247 FILLER_0_10_65
*1248 FILLER_0_10_77
*1249 FILLER_0_10_83
*1250 FILLER_0_10_85
*1251 FILLER_0_10_97
*1252 FILLER_0_11_105
*1253 FILLER_0_11_111
*1254 FILLER_0_11_113
*1255 FILLER_0_11_125
*1256 FILLER_0_11_137
*1257 FILLER_0_11_149
*1258 FILLER_0_11_15
*1259 FILLER_0_11_161
*1260 FILLER_0_11_167
*1261 FILLER_0_11_169
*1262 FILLER_0_11_181
*1263 FILLER_0_11_193
*1264 FILLER_0_11_217
*1265 FILLER_0_11_223
*1266 FILLER_0_11_245
*1267 FILLER_0_11_264
*1268 FILLER_0_11_27
*1269 FILLER_0_11_276
*1270 FILLER_0_11_290
*1271 FILLER_0_11_296
*1272 FILLER_0_11_3
*1273 FILLER_0_11_317
*1274 FILLER_0_11_329
*1275 FILLER_0_11_39
*1276 FILLER_0_11_51
*1277 FILLER_0_11_55
*1278 FILLER_0_11_57
*1279 FILLER_0_11_69
*1280 FILLER_0_11_81
*1281 FILLER_0_11_93
*1282 FILLER_0_12_109
*1283 FILLER_0_12_121
*1284 FILLER_0_12_133
*1285 FILLER_0_12_139
*1286 FILLER_0_12_141
*1287 FILLER_0_12_15
*1288 FILLER_0_12_153
*1289 FILLER_0_12_165
*1290 FILLER_0_12_177
*1291 FILLER_0_12_189
*1292 FILLER_0_12_195
*1293 FILLER_0_12_200
*1294 FILLER_0_12_206
*1295 FILLER_0_12_247
*1296 FILLER_0_12_251
*1297 FILLER_0_12_253
*1298 FILLER_0_12_265
*1299 FILLER_0_12_27
*1300 FILLER_0_12_271
*1301 FILLER_0_12_283
*1302 FILLER_0_12_29
*1303 FILLER_0_12_294
*1304 FILLER_0_12_3
*1305 FILLER_0_12_306
*1306 FILLER_0_12_309
*1307 FILLER_0_12_321
*1308 FILLER_0_12_333
*1309 FILLER_0_12_41
*1310 FILLER_0_12_53
*1311 FILLER_0_12_65
*1312 FILLER_0_12_77
*1313 FILLER_0_12_83
*1314 FILLER_0_12_85
*1315 FILLER_0_12_97
*1316 FILLER_0_13_105
*1317 FILLER_0_13_111
*1318 FILLER_0_13_113
*1319 FILLER_0_13_125
*1320 FILLER_0_13_137
*1321 FILLER_0_13_149
*1322 FILLER_0_13_15
*1323 FILLER_0_13_161
*1324 FILLER_0_13_167
*1325 FILLER_0_13_169
*1326 FILLER_0_13_181
*1327 FILLER_0_13_189
*1328 FILLER_0_13_249
*1329 FILLER_0_13_27
*1330 FILLER_0_13_292
*1331 FILLER_0_13_296
*1332 FILLER_0_13_3
*1333 FILLER_0_13_317
*1334 FILLER_0_13_325
*1335 FILLER_0_13_334
*1336 FILLER_0_13_39
*1337 FILLER_0_13_51
*1338 FILLER_0_13_55
*1339 FILLER_0_13_57
*1340 FILLER_0_13_69
*1341 FILLER_0_13_81
*1342 FILLER_0_13_93
*1343 FILLER_0_14_109
*1344 FILLER_0_14_121
*1345 FILLER_0_14_133
*1346 FILLER_0_14_139
*1347 FILLER_0_14_141
*1348 FILLER_0_14_15
*1349 FILLER_0_14_153
*1350 FILLER_0_14_165
*1351 FILLER_0_14_177
*1352 FILLER_0_14_189
*1353 FILLER_0_14_195
*1354 FILLER_0_14_197
*1355 FILLER_0_14_201
*1356 FILLER_0_14_224
*1357 FILLER_0_14_248
*1358 FILLER_0_14_27
*1359 FILLER_0_14_273
*1360 FILLER_0_14_279
*1361 FILLER_0_14_29
*1362 FILLER_0_14_3
*1363 FILLER_0_14_303
*1364 FILLER_0_14_307
*1365 FILLER_0_14_309
*1366 FILLER_0_14_41
*1367 FILLER_0_14_53
*1368 FILLER_0_14_65
*1369 FILLER_0_14_77
*1370 FILLER_0_14_83
*1371 FILLER_0_14_85
*1372 FILLER_0_14_97
*1373 FILLER_0_15_105
*1374 FILLER_0_15_111
*1375 FILLER_0_15_113
*1376 FILLER_0_15_125
*1377 FILLER_0_15_137
*1378 FILLER_0_15_149
*1379 FILLER_0_15_15
*1380 FILLER_0_15_161
*1381 FILLER_0_15_167
*1382 FILLER_0_15_169
*1383 FILLER_0_15_181
*1384 FILLER_0_15_203
*1385 FILLER_0_15_215
*1386 FILLER_0_15_223
*1387 FILLER_0_15_225
*1388 FILLER_0_15_246
*1389 FILLER_0_15_258
*1390 FILLER_0_15_27
*1391 FILLER_0_15_279
*1392 FILLER_0_15_281
*1393 FILLER_0_15_287
*1394 FILLER_0_15_3
*1395 FILLER_0_15_324
*1396 FILLER_0_15_332
*1397 FILLER_0_15_39
*1398 FILLER_0_15_51
*1399 FILLER_0_15_55
*1400 FILLER_0_15_57
*1401 FILLER_0_15_69
*1402 FILLER_0_15_81
*1403 FILLER_0_15_93
*1404 FILLER_0_16_109
*1405 FILLER_0_16_121
*1406 FILLER_0_16_133
*1407 FILLER_0_16_139
*1408 FILLER_0_16_141
*1409 FILLER_0_16_15
*1410 FILLER_0_16_153
*1411 FILLER_0_16_165
*1412 FILLER_0_16_177
*1413 FILLER_0_16_185
*1414 FILLER_0_16_190
*1415 FILLER_0_16_206
*1416 FILLER_0_16_212
*1417 FILLER_0_16_216
*1418 FILLER_0_16_220
*1419 FILLER_0_16_227
*1420 FILLER_0_16_239
*1421 FILLER_0_16_251
*1422 FILLER_0_16_253
*1423 FILLER_0_16_265
*1424 FILLER_0_16_27
*1425 FILLER_0_16_277
*1426 FILLER_0_16_289
*1427 FILLER_0_16_29
*1428 FILLER_0_16_3
*1429 FILLER_0_16_301
*1430 FILLER_0_16_307
*1431 FILLER_0_16_320
*1432 FILLER_0_16_332
*1433 FILLER_0_16_41
*1434 FILLER_0_16_53
*1435 FILLER_0_16_65
*1436 FILLER_0_16_77
*1437 FILLER_0_16_83
*1438 FILLER_0_16_85
*1439 FILLER_0_16_97
*1440 FILLER_0_17_105
*1441 FILLER_0_17_111
*1442 FILLER_0_17_113
*1443 FILLER_0_17_125
*1444 FILLER_0_17_137
*1445 FILLER_0_17_149
*1446 FILLER_0_17_15
*1447 FILLER_0_17_161
*1448 FILLER_0_17_167
*1449 FILLER_0_17_169
*1450 FILLER_0_17_201
*1451 FILLER_0_17_238
*1452 FILLER_0_17_250
*1453 FILLER_0_17_27
*1454 FILLER_0_17_274
*1455 FILLER_0_17_281
*1456 FILLER_0_17_293
*1457 FILLER_0_17_3
*1458 FILLER_0_17_309
*1459 FILLER_0_17_39
*1460 FILLER_0_17_51
*1461 FILLER_0_17_55
*1462 FILLER_0_17_57
*1463 FILLER_0_17_69
*1464 FILLER_0_17_81
*1465 FILLER_0_17_93
*1466 FILLER_0_18_109
*1467 FILLER_0_18_121
*1468 FILLER_0_18_133
*1469 FILLER_0_18_139
*1470 FILLER_0_18_141
*1471 FILLER_0_18_15
*1472 FILLER_0_18_153
*1473 FILLER_0_18_165
*1474 FILLER_0_18_177
*1475 FILLER_0_18_192
*1476 FILLER_0_18_206
*1477 FILLER_0_18_218
*1478 FILLER_0_18_230
*1479 FILLER_0_18_234
*1480 FILLER_0_18_243
*1481 FILLER_0_18_260
*1482 FILLER_0_18_264
*1483 FILLER_0_18_27
*1484 FILLER_0_18_29
*1485 FILLER_0_18_295
*1486 FILLER_0_18_3
*1487 FILLER_0_18_306
*1488 FILLER_0_18_309
*1489 FILLER_0_18_41
*1490 FILLER_0_18_53
*1491 FILLER_0_18_65
*1492 FILLER_0_18_77
*1493 FILLER_0_18_83
*1494 FILLER_0_18_85
*1495 FILLER_0_18_97
*1496 FILLER_0_19_105
*1497 FILLER_0_19_111
*1498 FILLER_0_19_113
*1499 FILLER_0_19_125
*1500 FILLER_0_19_137
*1501 FILLER_0_19_149
*1502 FILLER_0_19_15
*1503 FILLER_0_19_161
*1504 FILLER_0_19_167
*1505 FILLER_0_19_169
*1506 FILLER_0_19_181
*1507 FILLER_0_19_193
*1508 FILLER_0_19_203
*1509 FILLER_0_19_207
*1510 FILLER_0_19_211
*1511 FILLER_0_19_222
*1512 FILLER_0_19_225
*1513 FILLER_0_19_231
*1514 FILLER_0_19_248
*1515 FILLER_0_19_268
*1516 FILLER_0_19_27
*1517 FILLER_0_19_277
*1518 FILLER_0_19_290
*1519 FILLER_0_19_3
*1520 FILLER_0_19_314
*1521 FILLER_0_19_333
*1522 FILLER_0_19_39
*1523 FILLER_0_19_51
*1524 FILLER_0_19_55
*1525 FILLER_0_19_57
*1526 FILLER_0_19_69
*1527 FILLER_0_19_81
*1528 FILLER_0_19_93
*1529 FILLER_0_1_105
*1530 FILLER_0_1_111
*1531 FILLER_0_1_113
*1532 FILLER_0_1_125
*1533 FILLER_0_1_137
*1534 FILLER_0_1_149
*1535 FILLER_0_1_15
*1536 FILLER_0_1_161
*1537 FILLER_0_1_167
*1538 FILLER_0_1_169
*1539 FILLER_0_1_181
*1540 FILLER_0_1_193
*1541 FILLER_0_1_205
*1542 FILLER_0_1_217
*1543 FILLER_0_1_223
*1544 FILLER_0_1_245
*1545 FILLER_0_1_269
*1546 FILLER_0_1_27
*1547 FILLER_0_1_277
*1548 FILLER_0_1_281
*1549 FILLER_0_1_293
*1550 FILLER_0_1_3
*1551 FILLER_0_1_305
*1552 FILLER_0_1_317
*1553 FILLER_0_1_329
*1554 FILLER_0_1_39
*1555 FILLER_0_1_51
*1556 FILLER_0_1_55
*1557 FILLER_0_1_57
*1558 FILLER_0_1_69
*1559 FILLER_0_1_81
*1560 FILLER_0_1_93
*1561 FILLER_0_20_109
*1562 FILLER_0_20_121
*1563 FILLER_0_20_133
*1564 FILLER_0_20_139
*1565 FILLER_0_20_141
*1566 FILLER_0_20_15
*1567 FILLER_0_20_153
*1568 FILLER_0_20_165
*1569 FILLER_0_20_177
*1570 FILLER_0_20_186
*1571 FILLER_0_20_194
*1572 FILLER_0_20_197
*1573 FILLER_0_20_223
*1574 FILLER_0_20_227
*1575 FILLER_0_20_243
*1576 FILLER_0_20_261
*1577 FILLER_0_20_27
*1578 FILLER_0_20_29
*1579 FILLER_0_20_3
*1580 FILLER_0_20_303
*1581 FILLER_0_20_307
*1582 FILLER_0_20_309
*1583 FILLER_0_20_315
*1584 FILLER_0_20_319
*1585 FILLER_0_20_325
*1586 FILLER_0_20_334
*1587 FILLER_0_20_41
*1588 FILLER_0_20_53
*1589 FILLER_0_20_65
*1590 FILLER_0_20_77
*1591 FILLER_0_20_83
*1592 FILLER_0_20_85
*1593 FILLER_0_20_97
*1594 FILLER_0_21_105
*1595 FILLER_0_21_111
*1596 FILLER_0_21_113
*1597 FILLER_0_21_125
*1598 FILLER_0_21_137
*1599 FILLER_0_21_149
*1600 FILLER_0_21_15
*1601 FILLER_0_21_156
*1602 FILLER_0_21_169
*1603 FILLER_0_21_175
*1604 FILLER_0_21_197
*1605 FILLER_0_21_203
*1606 FILLER_0_21_265
*1607 FILLER_0_21_27
*1608 FILLER_0_21_277
*1609 FILLER_0_21_281
*1610 FILLER_0_21_290
*1611 FILLER_0_21_3
*1612 FILLER_0_21_302
*1613 FILLER_0_21_314
*1614 FILLER_0_21_326
*1615 FILLER_0_21_334
*1616 FILLER_0_21_39
*1617 FILLER_0_21_51
*1618 FILLER_0_21_55
*1619 FILLER_0_21_57
*1620 FILLER_0_21_69
*1621 FILLER_0_21_81
*1622 FILLER_0_21_93
*1623 FILLER_0_22_109
*1624 FILLER_0_22_121
*1625 FILLER_0_22_137
*1626 FILLER_0_22_141
*1627 FILLER_0_22_15
*1628 FILLER_0_22_166
*1629 FILLER_0_22_178
*1630 FILLER_0_22_186
*1631 FILLER_0_22_216
*1632 FILLER_0_22_228
*1633 FILLER_0_22_240
*1634 FILLER_0_22_253
*1635 FILLER_0_22_265
*1636 FILLER_0_22_27
*1637 FILLER_0_22_277
*1638 FILLER_0_22_287
*1639 FILLER_0_22_29
*1640 FILLER_0_22_295
*1641 FILLER_0_22_3
*1642 FILLER_0_22_309
*1643 FILLER_0_22_41
*1644 FILLER_0_22_53
*1645 FILLER_0_22_65
*1646 FILLER_0_22_77
*1647 FILLER_0_22_83
*1648 FILLER_0_22_85
*1649 FILLER_0_22_97
*1650 FILLER_0_23_105
*1651 FILLER_0_23_111
*1652 FILLER_0_23_113
*1653 FILLER_0_23_129
*1654 FILLER_0_23_147
*1655 FILLER_0_23_15
*1656 FILLER_0_23_159
*1657 FILLER_0_23_163
*1658 FILLER_0_23_184
*1659 FILLER_0_23_201
*1660 FILLER_0_23_213
*1661 FILLER_0_23_221
*1662 FILLER_0_23_225
*1663 FILLER_0_23_233
*1664 FILLER_0_23_248
*1665 FILLER_0_23_260
*1666 FILLER_0_23_27
*1667 FILLER_0_23_270
*1668 FILLER_0_23_278
*1669 FILLER_0_23_295
*1670 FILLER_0_23_3
*1671 FILLER_0_23_334
*1672 FILLER_0_23_39
*1673 FILLER_0_23_51
*1674 FILLER_0_23_55
*1675 FILLER_0_23_57
*1676 FILLER_0_23_69
*1677 FILLER_0_23_81
*1678 FILLER_0_23_93
*1679 FILLER_0_24_109
*1680 FILLER_0_24_121
*1681 FILLER_0_24_129
*1682 FILLER_0_24_137
*1683 FILLER_0_24_141
*1684 FILLER_0_24_15
*1685 FILLER_0_24_157
*1686 FILLER_0_24_165
*1687 FILLER_0_24_183
*1688 FILLER_0_24_194
*1689 FILLER_0_24_197
*1690 FILLER_0_24_201
*1691 FILLER_0_24_231
*1692 FILLER_0_24_248
*1693 FILLER_0_24_27
*1694 FILLER_0_24_274
*1695 FILLER_0_24_278
*1696 FILLER_0_24_287
*1697 FILLER_0_24_29
*1698 FILLER_0_24_3
*1699 FILLER_0_24_312
*1700 FILLER_0_24_41
*1701 FILLER_0_24_53
*1702 FILLER_0_24_65
*1703 FILLER_0_24_77
*1704 FILLER_0_24_83
*1705 FILLER_0_24_85
*1706 FILLER_0_24_97
*1707 FILLER_0_25_105
*1708 FILLER_0_25_111
*1709 FILLER_0_25_123
*1710 FILLER_0_25_132
*1711 FILLER_0_25_144
*1712 FILLER_0_25_15
*1713 FILLER_0_25_156
*1714 FILLER_0_25_169
*1715 FILLER_0_25_177
*1716 FILLER_0_25_206
*1717 FILLER_0_25_222
*1718 FILLER_0_25_225
*1719 FILLER_0_25_265
*1720 FILLER_0_25_27
*1721 FILLER_0_25_276
*1722 FILLER_0_25_294
*1723 FILLER_0_25_3
*1724 FILLER_0_25_306
*1725 FILLER_0_25_321
*1726 FILLER_0_25_333
*1727 FILLER_0_25_39
*1728 FILLER_0_25_51
*1729 FILLER_0_25_55
*1730 FILLER_0_25_57
*1731 FILLER_0_25_69
*1732 FILLER_0_25_81
*1733 FILLER_0_25_93
*1734 FILLER_0_26_109
*1735 FILLER_0_26_121
*1736 FILLER_0_26_133
*1737 FILLER_0_26_139
*1738 FILLER_0_26_141
*1739 FILLER_0_26_147
*1740 FILLER_0_26_15
*1741 FILLER_0_26_163
*1742 FILLER_0_26_167
*1743 FILLER_0_26_191
*1744 FILLER_0_26_195
*1745 FILLER_0_26_206
*1746 FILLER_0_26_210
*1747 FILLER_0_26_231
*1748 FILLER_0_26_243
*1749 FILLER_0_26_251
*1750 FILLER_0_26_264
*1751 FILLER_0_26_268
*1752 FILLER_0_26_27
*1753 FILLER_0_26_286
*1754 FILLER_0_26_29
*1755 FILLER_0_26_298
*1756 FILLER_0_26_3
*1757 FILLER_0_26_306
*1758 FILLER_0_26_309
*1759 FILLER_0_26_313
*1760 FILLER_0_26_323
*1761 FILLER_0_26_41
*1762 FILLER_0_26_53
*1763 FILLER_0_26_65
*1764 FILLER_0_26_77
*1765 FILLER_0_26_83
*1766 FILLER_0_26_85
*1767 FILLER_0_26_97
*1768 FILLER_0_27_105
*1769 FILLER_0_27_111
*1770 FILLER_0_27_113
*1771 FILLER_0_27_125
*1772 FILLER_0_27_137
*1773 FILLER_0_27_149
*1774 FILLER_0_27_15
*1775 FILLER_0_27_164
*1776 FILLER_0_27_169
*1777 FILLER_0_27_181
*1778 FILLER_0_27_193
*1779 FILLER_0_27_212
*1780 FILLER_0_27_220
*1781 FILLER_0_27_225
*1782 FILLER_0_27_237
*1783 FILLER_0_27_249
*1784 FILLER_0_27_269
*1785 FILLER_0_27_27
*1786 FILLER_0_27_277
*1787 FILLER_0_27_281
*1788 FILLER_0_27_293
*1789 FILLER_0_27_297
*1790 FILLER_0_27_3
*1791 FILLER_0_27_307
*1792 FILLER_0_27_315
*1793 FILLER_0_27_327
*1794 FILLER_0_27_39
*1795 FILLER_0_27_51
*1796 FILLER_0_27_55
*1797 FILLER_0_27_57
*1798 FILLER_0_27_69
*1799 FILLER_0_27_81