*SPEF "ieee 1481-1999"
*DESIGN "tt_um_4bit_cpu_with_fsm"
*DATE "12:15:05 Friday April 12, 2024"
*VENDOR "The OpenROAD Project"
*PROGRAM "OpenROAD"
*VERSION "0889970d1790a2617e69f253221b8bd7626e51dc"
*DESIGN_FLOW "NAME_SCOPE LOCAL" "PIN_CAP NONE"
*DIVIDER /
*DELIMITER :
*BUS_DELIMITER []
*T_UNIT 1 NS
*C_UNIT 1 PF
*R_UNIT 1 OHM
*L_UNIT 1 HENRY

*NAME_MAP
*3 clk
*4 ena
*5 rst_n
*6 ui_in[0]
*7 ui_in[1]
*8 ui_in[2]
*9 ui_in[3]
*10 ui_in[4]
*11 ui_in[5]
*12 ui_in[6]
*13 ui_in[7]
*14 uio_in[0]
*15 uio_in[1]
*16 uio_in[2]
*17 uio_in[3]
*18 uio_in[4]
*19 uio_in[5]
*20 uio_in[6]
*21 uio_in[7]
*22 net34
*23 net35
*24 net36
*25 net37
*26 net38
*27 net39
*28 net40
*29 net41
*30 net42
*31 net43
*32 net44
*33 net45
*34 net46
*35 net47
*36 net48
*37 net49
*38 uo_out[0]
*39 uo_out[1]
*40 uo_out[2]
*41 uo_out[3]
*42 net50
*43 net51
*44 net52
*45 net53
*46 _000_
*47 _001_
*48 _002_
*49 _003_
*50 _004_
*51 _005_
*52 _006_
*53 _007_
*54 _008_
*55 _009_
*56 _010_
*57 _011_
*58 _012_
*59 _013_
*60 _014_
*61 _015_
*62 _016_
*63 _017_
*64 _018_
*65 _019_
*66 _020_
*67 _021_
*68 _022_
*69 _023_
*70 _024_
*71 _025_
*72 _026_
*73 _027_
*74 _028_
*75 _029_
*76 _030_
*77 _031_
*78 _032_
*79 _033_
*80 _034_
*81 _035_
*82 _036_
*83 _037_
*84 _038_
*85 _039_
*86 _040_
*87 _041_
*88 _042_
*89 _043_
*90 _044_
*91 _045_
*92 _046_
*93 _047_
*94 _048_
*95 _049_
*96 _050_
*97 _051_
*98 _052_
*99 _053_
*100 _054_
*101 _055_
*102 _056_
*103 _057_
*104 _058_
*105 _059_
*106 _060_
*107 _061_
*108 _062_
*109 _063_
*110 _064_
*111 _065_
*112 _066_
*113 _067_
*114 _068_
*115 _069_
*116 _070_
*117 _071_
*118 _072_
*119 _073_
*120 _074_
*121 _075_
*122 _076_
*123 _077_
*124 _078_
*125 _079_
*126 _080_
*127 _081_
*128 _082_
*129 _083_
*130 _084_
*131 _085_
*132 _086_
*133 _087_
*134 _088_
*135 _089_
*136 _090_
*137 _091_
*138 _092_
*139 _093_
*140 _094_
*141 _095_
*142 _096_
*143 _097_
*144 _098_
*145 _099_
*146 _100_
*147 _101_
*148 _102_
*149 _103_
*150 _104_
*151 _105_
*152 _106_
*153 _107_
*154 _108_
*155 _109_
*156 _110_
*157 _111_
*158 _112_
*159 _113_
*160 _114_
*161 _115_
*162 _116_
*163 _117_
*164 _118_
*165 _119_
*166 _120_
*167 _121_
*168 _122_
*169 _123_
*170 _124_
*171 _125_
*172 _126_
*173 _127_
*174 _128_
*175 _129_
*176 _130_
*177 _131_
*178 _132_
*179 _133_
*180 _134_
*181 _135_
*182 _136_
*183 _137_
*184 _138_
*185 _139_
*186 _140_
*187 _141_
*188 _142_
*189 _143_
*190 _144_
*191 _145_
*192 _146_
*193 _147_
*194 _148_
*195 _149_
*196 _150_
*197 _151_
*198 _152_
*199 _153_
*200 _154_
*201 _155_
*202 _156_
*203 _157_
*204 _158_
*205 _159_
*206 _160_
*207 _161_
*208 _162_
*209 _163_
*210 _164_
*211 _165_
*212 _166_
*213 _167_
*214 _168_
*215 _169_
*216 _170_
*217 _171_
*218 _172_
*219 _173_
*220 _174_
*221 _175_
*222 _176_
*223 _177_
*224 _178_
*225 _179_
*226 _180_
*227 _181_
*228 _182_
*229 _183_
*230 _184_
*231 _185_
*232 _186_
*233 _187_
*234 _188_
*235 _189_
*236 _190_
*237 _191_
*238 _192_
*239 _193_
*240 _194_
*241 _195_
*242 _196_
*243 _197_
*244 _198_
*245 _199_
*246 _200_
*247 _201_
*248 _202_
*249 _203_
*250 _204_
*251 _205_
*252 _206_
*253 _207_
*254 _208_
*255 _209_
*256 _210_
*257 _211_
*258 _212_
*259 _213_
*260 _214_
*261 _215_
*262 _216_
*263 _217_
*264 _218_
*265 _219_
*266 _220_
*267 _221_
*268 _222_
*269 _223_
*270 _224_
*271 _225_
*272 _226_
*273 _227_
*274 _228_
*275 _229_
*276 _230_
*277 _231_
*278 _232_
*279 _233_
*280 _234_
*281 _235_
*282 _236_
*283 _237_
*284 _238_
*285 _239_
*286 _240_
*287 _241_
*288 _242_
*289 _243_
*290 _244_
*291 _245_
*292 _246_
*293 _247_
*294 _248_
*295 _249_
*296 _250_
*297 _251_
*298 _252_
*299 _253_
*300 _254_
*301 _255_
*302 _256_
*303 _257_
*304 _258_
*305 _259_
*306 _260_
*307 _261_
*308 _262_
*309 _263_
*310 _264_
*311 _265_
*312 _266_
*313 _267_
*314 _268_
*315 _269_
*316 _270_
*317 _271_
*318 _272_
*319 _273_
*320 _274_
*321 _275_
*322 _276_
*323 _277_
*324 _278_
*325 _279_
*326 _280_
*327 _281_
*328 _282_
*329 _283_
*330 _284_
*331 _285_
*332 _286_
*333 _287_
*334 _288_
*335 _289_
*336 _290_
*337 _291_
*338 _292_
*339 _293_
*340 _294_
*341 _295_
*342 _296_
*343 _297_
*344 _298_
*345 _299_
*346 _300_
*347 _301_
*348 _302_
*349 _303_
*350 _304_
*351 _305_
*352 _306_
*353 _307_
*354 _308_
*355 _309_
*356 _310_
*357 _311_
*358 _312_
*359 _313_
*360 _314_
*361 _315_
*362 _316_
*363 _317_
*364 _318_
*365 _319_
*366 _320_
*367 _321_
*368 _322_
*369 _323_
*370 _324_
*371 _325_
*372 _326_
*373 _327_
*374 _328_
*375 _329_
*376 _330_
*377 _331_
*378 _332_
*379 _333_
*380 _334_
*381 _335_
*382 _336_
*383 _337_
*384 _338_
*385 _339_
*386 _340_
*387 _341_
*388 _342_
*389 _343_
*390 _344_
*391 _345_
*392 _346_
*393 _347_
*394 _348_
*395 _349_
*396 _350_
*397 _351_
*398 _352_
*399 _353_
*400 _354_
*401 _355_
*402 _356_
*403 _357_
*404 _358_
*405 _359_
*406 _360_
*407 _361_
*408 _362_
*409 _363_
*410 _364_
*411 _365_
*412 _366_
*413 _367_
*414 clknet_0_clk
*415 clknet_4_0_0_clk
*416 clknet_4_10_0_clk
*417 clknet_4_11_0_clk
*418 clknet_4_12_0_clk
*419 clknet_4_13_0_clk
*420 clknet_4_14_0_clk
*421 clknet_4_15_0_clk
*422 clknet_4_1_0_clk
*423 clknet_4_2_0_clk
*424 clknet_4_3_0_clk
*425 clknet_4_4_0_clk
*426 clknet_4_5_0_clk
*427 clknet_4_6_0_clk
*428 clknet_4_7_0_clk
*429 clknet_4_8_0_clk
*430 clknet_4_9_0_clk
*431 fsm_state\[0\]
*432 fsm_state\[1\]
*433 fsm_state\[2\]
*434 memory\[0\]\[0\]
*435 memory\[0\]\[1\]
*436 memory\[0\]\[2\]
*437 memory\[0\]\[3\]
*438 memory\[10\]\[0\]
*439 memory\[10\]\[1\]
*440 memory\[10\]\[2\]
*441 memory\[10\]\[3\]
*442 memory\[11\]\[0\]
*443 memory\[11\]\[1\]
*444 memory\[11\]\[2\]
*445 memory\[11\]\[3\]
*446 memory\[12\]\[0\]
*447 memory\[12\]\[1\]
*448 memory\[12\]\[2\]
*449 memory\[12\]\[3\]
*450 memory\[13\]\[0\]
*451 memory\[13\]\[1\]
*452 memory\[13\]\[2\]
*453 memory\[13\]\[3\]
*454 memory\[14\]\[0\]
*455 memory\[14\]\[1\]
*456 memory\[14\]\[2\]
*457 memory\[14\]\[3\]
*458 memory\[15\]\[0\]
*459 memory\[15\]\[1\]
*460 memory\[15\]\[2\]
*461 memory\[15\]\[3\]
*462 memory\[1\]\[0\]
*463 memory\[1\]\[1\]
*464 memory\[1\]\[2\]
*465 memory\[1\]\[3\]
*466 memory\[2\]\[0\]
*467 memory\[2\]\[1\]
*468 memory\[2\]\[2\]
*469 memory\[2\]\[3\]
*470 memory\[3\]\[0\]
*471 memory\[3\]\[1\]
*472 memory\[3\]\[2\]
*473 memory\[3\]\[3\]
*474 memory\[4\]\[0\]
*475 memory\[4\]\[1\]
*476 memory\[4\]\[2\]
*477 memory\[4\]\[3\]
*478 memory\[5\]\[0\]
*479 memory\[5\]\[1\]
*480 memory\[5\]\[2\]
*481 memory\[5\]\[3\]
*482 memory\[6\]\[0\]
*483 memory\[6\]\[1\]
*484 memory\[6\]\[2\]
*485 memory\[6\]\[3\]
*486 memory\[7\]\[0\]
*487 memory\[7\]\[1\]
*488 memory\[7\]\[2\]
*489 memory\[7\]\[3\]
*490 memory\[8\]\[0\]
*491 memory\[8\]\[1\]
*492 memory\[8\]\[2\]
*493 memory\[8\]\[3\]
*494 memory\[9\]\[0\]
*495 memory\[9\]\[1\]
*496 memory\[9\]\[2\]
*497 memory\[9\]\[3\]
*498 net1
*499 net10
*500 net100
*501 net101
*502 net102
*503 net103
*504 net104
*505 net105
*506 net106
*507 net107
*508 net108
*509 net109
*510 net11
*511 net110
*512 net111
*513 net112
*514 net113
*515 net114
*516 net115
*517 net116
*518 net117
*519 net118
*520 net119
*521 net12
*522 net120
*523 net121
*524 net122
*525 net123
*526 net124
*527 net125
*528 net126
*529 net127
*530 net128
*531 net129
*532 net13
*533 net130
*534 net131
*535 net132
*536 net133
*537 net134
*538 net14
*539 net15
*540 net16
*541 net17
*542 net18
*543 net19
*544 net2
*545 net20
*546 net21
*547 net22
*548 net23
*549 net24
*550 net25
*551 net26
*552 net27
*553 net28
*554 net29
*555 net3
*556 net30
*557 net31
*558 net32
*559 net33
*560 net4
*561 net5
*562 net54
*563 net55
*564 net56
*565 net57
*566 net58
*567 net59
*568 net6
*569 net60
*570 net61
*571 net62
*572 net63
*573 net64
*574 net65
*575 net66
*576 net67
*577 net68
*578 net69
*579 net7
*580 net70
*581 net71
*582 net72
*583 net73
*584 net74
*585 net75
*586 net76
*587 net77
*588 net78
*589 net79
*590 net8
*591 net80
*592 net81
*593 net82
*594 net83
*595 net84
*596 net85
*597 net86
*598 net87
*599 net88
*600 net89
*601 net9
*602 net90
*603 net91
*604 net92
*605 net93
*606 net94
*607 net95
*608 net96
*609 net97
*610 net98
*611 net99
*612 next_accumulator\[0\]
*613 next_accumulator\[1\]
*614 next_accumulator\[2\]
*615 next_accumulator\[3\]
*616 next_fsm_state\[0\]
*617 next_fsm_state\[1\]
*618 next_fsm_state\[2\]
*619 next_memory\[0\]\[0\]
*620 next_memory\[0\]\[1\]
*621 next_memory\[0\]\[2\]
*622 next_memory\[0\]\[3\]
*623 next_memory\[10\]\[0\]
*624 next_memory\[10\]\[1\]
*625 next_memory\[10\]\[2\]
*626 next_memory\[10\]\[3\]
*627 next_memory\[11\]\[0\]
*628 next_memory\[11\]\[1\]
*629 next_memory\[11\]\[2\]
*630 next_memory\[11\]\[3\]
*631 next_memory\[12\]\[0\]
*632 next_memory\[12\]\[1\]
*633 next_memory\[12\]\[2\]
*634 next_memory\[12\]\[3\]
*635 next_memory\[13\]\[0\]
*636 next_memory\[13\]\[1\]
*637 next_memory\[13\]\[2\]
*638 next_memory\[13\]\[3\]
*639 next_memory\[14\]\[0\]
*640 next_memory\[14\]\[1\]
*641 next_memory\[14\]\[2\]
*642 next_memory\[14\]\[3\]
*643 next_memory\[15\]\[0\]
*644 next_memory\[15\]\[1\]
*645 next_memory\[15\]\[2\]
*646 next_memory\[15\]\[3\]
*647 next_memory\[1\]\[0\]
*648 next_memory\[1\]\[1\]
*649 next_memory\[1\]\[2\]
*650 next_memory\[1\]\[3\]
*651 next_memory\[2\]\[0\]
*652 next_memory\[2\]\[1\]
*653 next_memory\[2\]\[2\]
*654 next_memory\[2\]\[3\]
*655 next_memory\[3\]\[0\]
*656 next_memory\[3\]\[1\]
*657 next_memory\[3\]\[2\]
*658 next_memory\[3\]\[3\]
*659 next_memory\[4\]\[0\]
*660 next_memory\[4\]\[1\]
*661 next_memory\[4\]\[2\]
*662 next_memory\[4\]\[3\]
*663 next_memory\[5\]\[0\]
*664 next_memory\[5\]\[1\]
*665 next_memory\[5\]\[2\]
*666 next_memory\[5\]\[3\]
*667 next_memory\[6\]\[0\]
*668 next_memory\[6\]\[1\]
*669 next_memory\[6\]\[2\]
*670 next_memory\[6\]\[3\]
*671 next_memory\[7\]\[0\]
*672 next_memory\[7\]\[1\]
*673 next_memory\[7\]\[2\]
*674 next_memory\[7\]\[3\]
*675 next_memory\[8\]\[0\]
*676 next_memory\[8\]\[1\]
*677 next_memory\[8\]\[2\]
*678 next_memory\[8\]\[3\]
*679 next_memory\[9\]\[0\]
*680 next_memory\[9\]\[1\]
*681 next_memory\[9\]\[2\]
*682 next_memory\[9\]\[3\]
*683 next_operand_a\[0\]
*684 next_operand_a\[1\]
*685 next_operand_a\[2\]
*686 next_operand_a\[3\]
*687 next_operand_b\[0\]
*688 next_operand_b\[1\]
*689 next_operand_b\[2\]
*690 next_operand_b\[3\]
*691 operand_a\[0\]
*692 operand_a\[1\]
*693 operand_a\[2\]
*694 operand_a\[3\]
*695 operand_b\[0\]
*696 operand_b\[1\]
*697 operand_b\[2\]
*698 operand_b\[3\]
*699 write_enable_ff
*700 FILLER_0_0_109
*701 FILLER_0_0_113
*702 FILLER_0_0_125
*703 FILLER_0_0_137
*704 FILLER_0_0_141
*705 FILLER_0_0_15
*706 FILLER_0_0_153
*707 FILLER_0_0_165
*708 FILLER_0_0_169
*709 FILLER_0_0_181
*710 FILLER_0_0_193
*711 FILLER_0_0_197
*712 FILLER_0_0_209
*713 FILLER_0_0_221
*714 FILLER_0_0_225
*715 FILLER_0_0_237
*716 FILLER_0_0_249
*717 FILLER_0_0_253
*718 FILLER_0_0_265
*719 FILLER_0_0_27
*720 FILLER_0_0_277
*721 FILLER_0_0_281
*722 FILLER_0_0_29
*723 FILLER_0_0_293
*724 FILLER_0_0_3
*725 FILLER_0_0_305
*726 FILLER_0_0_309
*727 FILLER_0_0_321
*728 FILLER_0_0_333
*729 FILLER_0_0_41
*730 FILLER_0_0_53
*731 FILLER_0_0_57
*732 FILLER_0_0_69
*733 FILLER_0_0_81
*734 FILLER_0_0_85
*735 FILLER_0_0_97
*736 FILLER_0_10_105
*737 FILLER_0_10_111
*738 FILLER_0_10_125
*739 FILLER_0_10_137
*740 FILLER_0_10_15
*741 FILLER_0_10_165
*742 FILLER_0_10_181
*743 FILLER_0_10_221
*744 FILLER_0_10_233
*745 FILLER_0_10_245
*746 FILLER_0_10_251
*747 FILLER_0_10_253
*748 FILLER_0_10_262
*749 FILLER_0_10_268
*750 FILLER_0_10_27
*751 FILLER_0_10_289
*752 FILLER_0_10_29
*753 FILLER_0_10_3
*754 FILLER_0_10_301
*755 FILLER_0_10_329
*756 FILLER_0_10_41
*757 FILLER_0_10_53
*758 FILLER_0_10_74
*759 FILLER_0_10_82
*760 FILLER_0_11_100
*761 FILLER_0_11_110
*762 FILLER_0_11_133
*763 FILLER_0_11_139
*764 FILLER_0_11_15
*765 FILLER_0_11_169
*766 FILLER_0_11_177
*767 FILLER_0_11_184
*768 FILLER_0_11_225
*769 FILLER_0_11_237
*770 FILLER_0_11_249
*771 FILLER_0_11_261
*772 FILLER_0_11_27
*773 FILLER_0_11_273
*774 FILLER_0_11_279
*775 FILLER_0_11_3
*776 FILLER_0_11_301
*777 FILLER_0_11_313
*778 FILLER_0_11_317
*779 FILLER_0_11_326
*780 FILLER_0_11_334
*781 FILLER_0_11_39
*782 FILLER_0_11_80
*783 FILLER_0_11_92
*784 FILLER_0_12_111
*785 FILLER_0_12_121
*786 FILLER_0_12_125
*787 FILLER_0_12_135
*788 FILLER_0_12_139
*789 FILLER_0_12_141
*790 FILLER_0_12_15
*791 FILLER_0_12_152
*792 FILLER_0_12_169
*793 FILLER_0_12_182
*794 FILLER_0_12_190
*795 FILLER_0_12_194
*796 FILLER_0_12_197
*797 FILLER_0_12_208
*798 FILLER_0_12_253
*799 FILLER_0_12_265
*800 FILLER_0_12_27
*801 FILLER_0_12_29
*802 FILLER_0_12_298
*803 FILLER_0_12_3
*804 FILLER_0_12_306
*805 FILLER_0_12_325
*806 FILLER_0_12_333
*807 FILLER_0_12_41
*808 FILLER_0_12_53
*809 FILLER_0_12_77
*810 FILLER_0_12_83
*811 FILLER_0_12_93
*812 FILLER_0_13_102
*813 FILLER_0_13_106
*814 FILLER_0_13_141
*815 FILLER_0_13_15
*816 FILLER_0_13_164
*817 FILLER_0_13_185
*818 FILLER_0_13_215
*819 FILLER_0_13_223
*820 FILLER_0_13_225
*821 FILLER_0_13_230
*822 FILLER_0_13_259
*823 FILLER_0_13_263
*824 FILLER_0_13_27
*825 FILLER_0_13_3
*826 FILLER_0_13_301
*827 FILLER_0_13_308
*828 FILLER_0_13_329
*829 FILLER_0_13_39
*830 FILLER_0_13_60
*831 FILLER_0_13_93
*832 FILLER_0_14_105
*833 FILLER_0_14_128
*834 FILLER_0_14_15
*835 FILLER_0_14_152
*836 FILLER_0_14_164
*837 FILLER_0_14_168
*838 FILLER_0_14_194
*839 FILLER_0_14_197
*840 FILLER_0_14_201
*841 FILLER_0_14_231
*842 FILLER_0_14_250
*843 FILLER_0_14_27
*844 FILLER_0_14_29
*845 FILLER_0_14_298
*846 FILLER_0_14_3
*847 FILLER_0_14_306
*848 FILLER_0_14_333
*849 FILLER_0_14_35
*850 FILLER_0_14_70
*851 FILLER_0_15_100
*852 FILLER_0_15_113
*853 FILLER_0_15_126
*854 FILLER_0_15_148
*855 FILLER_0_15_15
*856 FILLER_0_15_161
*857 FILLER_0_15_167
*858 FILLER_0_15_169
*859 FILLER_0_15_177
*860 FILLER_0_15_186
*861 FILLER_0_15_198
*862 FILLER_0_15_202
*863 FILLER_0_15_225
*864 FILLER_0_15_237
*865 FILLER_0_15_261
*866 FILLER_0_15_27
*867 FILLER_0_15_273
*868 FILLER_0_15_279
*869 FILLER_0_15_297
*870 FILLER_0_15_3
*871 FILLER_0_15_325
*872 FILLER_0_15_332
*873 FILLER_0_15_35
*874 FILLER_0_15_66
*875 FILLER_0_16_119
*876 FILLER_0_16_128
*877 FILLER_0_16_141
*878 FILLER_0_16_149
*879 FILLER_0_16_15
*880 FILLER_0_16_158
*881 FILLER_0_16_195
*882 FILLER_0_16_197
*883 FILLER_0_16_205
*884 FILLER_0_16_235
*885 FILLER_0_16_243
*886 FILLER_0_16_262
*887 FILLER_0_16_27
*888 FILLER_0_16_274
*889 FILLER_0_16_29
*890 FILLER_0_16_3
*891 FILLER_0_16_309
*892 FILLER_0_16_333
*893 FILLER_0_16_44
*894 FILLER_0_16_82
*895 FILLER_0_16_85
*896 FILLER_0_16_99
*897 FILLER_0_17_104
*898 FILLER_0_17_108
*899 FILLER_0_17_122
*900 FILLER_0_17_148
*901 FILLER_0_17_15
*902 FILLER_0_17_160
*903 FILLER_0_17_183
*904 FILLER_0_17_195
*905 FILLER_0_17_201
*906 FILLER_0_17_212
*907 FILLER_0_17_222
*908 FILLER_0_17_234
*909 FILLER_0_17_259
*910 FILLER_0_17_263
*911 FILLER_0_17_27
*912 FILLER_0_17_271
*913 FILLER_0_17_281
*914 FILLER_0_17_3
*915 FILLER_0_17_309
*916 FILLER_0_17_317
*917 FILLER_0_17_33
*918 FILLER_0_17_50
*919 FILLER_0_17_96
*920 FILLER_0_18_119
*921 FILLER_0_18_128
*922 FILLER_0_18_139
*923 FILLER_0_18_144
*924 FILLER_0_18_15
*925 FILLER_0_18_152
*926 FILLER_0_18_166
*927 FILLER_0_18_175
*928 FILLER_0_18_197
*929 FILLER_0_18_209
*930 FILLER_0_18_230
*931 FILLER_0_18_238
*932 FILLER_0_18_246
*933 FILLER_0_18_253
*934 FILLER_0_18_264
*935 FILLER_0_18_27
*936 FILLER_0_18_29
*937 FILLER_0_18_3
*938 FILLER_0_18_304
*939 FILLER_0_18_309
*940 FILLER_0_18_321
*941 FILLER_0_18_333
*942 FILLER_0_18_52
*943 FILLER_0_18_78
*944 FILLER_0_18_85
*945 FILLER_0_18_93
*946 FILLER_0_19_106
*947 FILLER_0_19_141
*948 FILLER_0_19_15
*949 FILLER_0_19_163
*950 FILLER_0_19_167
*951 FILLER_0_19_169
*952 FILLER_0_19_173
*953 FILLER_0_19_193
*954 FILLER_0_19_212
*955 FILLER_0_19_220
*956 FILLER_0_19_231
*957 FILLER_0_19_239
*958 FILLER_0_19_246
*959 FILLER_0_19_258
*960 FILLER_0_19_27
*961 FILLER_0_19_278
*962 FILLER_0_19_281
*963 FILLER_0_19_296
*964 FILLER_0_19_3
*965 FILLER_0_19_308
*966 FILLER_0_19_331
*967 FILLER_0_19_39
*968 FILLER_0_19_44
*969 FILLER_0_19_73
*970 FILLER_0_19_85
*971 FILLER_0_19_89
*972 FILLER_0_1_105
*973 FILLER_0_1_111
*974 FILLER_0_1_113
*975 FILLER_0_1_125
*976 FILLER_0_1_137
*977 FILLER_0_1_149
*978 FILLER_0_1_15
*979 FILLER_0_1_161
*980 FILLER_0_1_167
*981 FILLER_0_1_169
*982 FILLER_0_1_181
*983 FILLER_0_1_193
*984 FILLER_0_1_205
*985 FILLER_0_1_217
*986 FILLER_0_1_223
*987 FILLER_0_1_225
*988 FILLER_0_1_237
*989 FILLER_0_1_249
*990 FILLER_0_1_261
*991 FILLER_0_1_27
*992 FILLER_0_1_273
*993 FILLER_0_1_279
*994 FILLER_0_1_281
*995 FILLER_0_1_293
*996 FILLER_0_1_3
*997 FILLER_0_1_305
*998 FILLER_0_1_317
*999 FILLER_0_1_329
*1000 FILLER_0_1_39
*1001 FILLER_0_1_51
*1002 FILLER_0_1_55
*1003 FILLER_0_1_57
*1004 FILLER_0_1_69
*1005 FILLER_0_1_81
*1006 FILLER_0_1_93
*1007 FILLER_0_20_103
*1008 FILLER_0_20_111
*1009 FILLER_0_20_125
*1010 FILLER_0_20_137
*1011 FILLER_0_20_15
*1012 FILLER_0_20_154
*1013 FILLER_0_20_158
*1014 FILLER_0_20_175
*1015 FILLER_0_20_181
*1016 FILLER_0_20_191
*1017 FILLER_0_20_195
*1018 FILLER_0_20_224
*1019 FILLER_0_20_232
*1020 FILLER_0_20_249
*1021 FILLER_0_20_27
*1022 FILLER_0_20_276
*1023 FILLER_0_20_29
*1024 FILLER_0_20_292
*1025 FILLER_0_20_3
*1026 FILLER_0_20_304
*1027 FILLER_0_20_333
*1028 FILLER_0_20_82
*1029 FILLER_0_20_85
*1030 FILLER_0_20_97
*1031 FILLER_0_21_110
*1032 FILLER_0_21_113
*1033 FILLER_0_21_130
*1034 FILLER_0_21_142
*1035 FILLER_0_21_15
*1036 FILLER_0_21_159
*1037 FILLER_0_21_167
*1038 FILLER_0_21_175
*1039 FILLER_0_21_205
*1040 FILLER_0_21_213
*1041 FILLER_0_21_220
*1042 FILLER_0_21_225
*1043 FILLER_0_21_233
*1044 FILLER_0_21_27
*1045 FILLER_0_21_289
*1046 FILLER_0_21_3
*1047 FILLER_0_21_334
*1048 FILLER_0_21_35
*1049 FILLER_0_21_77
*1050 FILLER_0_21_83
*1051 FILLER_0_22_105
*1052 FILLER_0_22_146
*1053 FILLER_0_22_15
*1054 FILLER_0_22_167
*1055 FILLER_0_22_171
*1056 FILLER_0_22_197
*1057 FILLER_0_22_225
*1058 FILLER_0_22_237
*1059 FILLER_0_22_250
*1060 FILLER_0_22_27
*1061 FILLER_0_22_29
*1062 FILLER_0_22_295
*1063 FILLER_0_22_3
*1064 FILLER_0_22_325
*1065 FILLER_0_22_333
*1066 FILLER_0_22_41
*1067 FILLER_0_22_45
*1068 FILLER_0_22_56
*1069 FILLER_0_22_68
*1070 FILLER_0_22_74
*1071 FILLER_0_23_101
*1072 FILLER_0_23_109
*1073 FILLER_0_23_138
*1074 FILLER_0_23_146
*1075 FILLER_0_23_15
*1076 FILLER_0_23_151
*1077 FILLER_0_23_161
*1078 FILLER_0_23_167
*1079 FILLER_0_23_178
*1080 FILLER_0_23_219
*1081 FILLER_0_23_223
*1082 FILLER_0_23_239
*1083 FILLER_0_23_251
*1084 FILLER_0_23_257
*1085 FILLER_0_23_261
*1086 FILLER_0_23_27
*1087 FILLER_0_23_274
*1088 FILLER_0_23_281
*1089 FILLER_0_23_293
*1090 FILLER_0_23_3
*1091 FILLER_0_23_301
*1092 FILLER_0_23_308
*1093 FILLER_0_23_319
*1094 FILLER_0_23_331
*1095 FILLER_0_23_39
*1096 FILLER_0_23_51
*1097 FILLER_0_23_55
*1098 FILLER_0_23_57
*1099 FILLER_0_24_121
*1100 FILLER_0_24_125
*1101 FILLER_0_24_134
*1102 FILLER_0_24_141
*1103 FILLER_0_24_149
*1104 FILLER_0_24_15
*1105 FILLER_0_24_156
*1106 FILLER_0_24_168
*1107 FILLER_0_24_174
*1108 FILLER_0_24_178
*1109 FILLER_0_24_191
*1110 FILLER_0_24_195
*1111 FILLER_0_24_197
*1112 FILLER_0_24_210
*1113 FILLER_0_24_232
*1114 FILLER_0_24_240
*1115 FILLER_0_24_253
*1116 FILLER_0_24_257
*1117 FILLER_0_24_27
*1118 FILLER_0_24_278
*1119 FILLER_0_24_287
*1120 FILLER_0_24_29
*1121 FILLER_0_24_295
*1122 FILLER_0_24_3
*1123 FILLER_0_24_329
*1124 FILLER_0_24_41
*1125 FILLER_0_24_53
*1126 FILLER_0_24_81
*1127 FILLER_0_24_93
*1128 FILLER_0_24_97
*1129 FILLER_0_25_109
*1130 FILLER_0_25_15
*1131 FILLER_0_25_150
*1132 FILLER_0_25_154
*1133 FILLER_0_25_161
*1134 FILLER_0_25_167
*1135 FILLER_0_25_169
*1136 FILLER_0_25_181
*1137 FILLER_0_25_185
*1138 FILLER_0_25_189
*1139 FILLER_0_25_193
*1140 FILLER_0_25_214
*1141 FILLER_0_25_244
*1142 FILLER_0_25_27
*1143 FILLER_0_25_275
*1144 FILLER_0_25_279
*1145 FILLER_0_25_289
*1146 FILLER_0_25_3
*1147 FILLER_0_25_39
*1148 FILLER_0_25_51
*1149 FILLER_0_25_55
*1150 FILLER_0_25_57
*1151 FILLER_0_25_69
*1152 FILLER_0_25_81
*1153 FILLER_0_26_116
*1154 FILLER_0_26_120
*1155 FILLER_0_26_137
*1156 FILLER_0_26_15
*1157 FILLER_0_26_169
*1158 FILLER_0_26_177
*1159 FILLER_0_26_206
*1160 FILLER_0_26_231
*1161 FILLER_0_26_248
*1162 FILLER_0_26_269
*1163 FILLER_0_26_27
*1164 FILLER_0_26_29
*1165 FILLER_0_26_3
*1166 FILLER_0_26_301
*1167 FILLER_0_26_307
*1168 FILLER_0_26_333
*1169 FILLER_0_26_41
*1170 FILLER_0_26_53
*1171 FILLER_0_26_65
*1172 FILLER_0_27_110
*1173 FILLER_0_27_113
*1174 FILLER_0_27_121
*1175 FILLER_0_27_15
*1176 FILLER_0_27_161
*1177 FILLER_0_27_169
*1178 FILLER_0_27_210
*1179 FILLER_0_27_225
*1180 FILLER_0_27_237
*1181 FILLER_0_27_247
*1182 FILLER_0_27_27
*1183 FILLER_0_27_275
*1184 FILLER_0_27_279
*1185 FILLER_0_27_292
*1186 FILLER_0_27_298
*1187 FILLER_0_27_3
*1188 FILLER_0_27_308
*1189 FILLER_0_27_320
*1190 FILLER_0_27_332
*1191 FILLER_0_27_39
*1192 FILLER_0_27_51
*1193 FILLER_0_27_55
*1194 FILLER_0_27_57
*1195 FILLER_0_28_102
*1196 FILLER_0_28_114
*1197 FILLER_0_28_122
*1198 FILLER_0_28_137
*1199 FILLER_0_28_141
*1200 FILLER_0_28_145
*1201 FILLER_0_28_15
*1202 FILLER_0_28_165
*1203 FILLER_0_28_193
*1204 FILLER_0_28_197
*1205 FILLER_0_28_209
*1206 FILLER_0_28_221
*1207 FILLER_0_28_233
*1208 FILLER_0_28_249
*1209 FILLER_0_28_253
*1210 FILLER_0_28_259
*1211 FILLER_0_28_263
*1212 FILLER_0_28_27
*1213 FILLER_0_28_273
*1214 FILLER_0_28_29
*1215 FILLER_0_28_292
*1216 FILLER_0_28_3
*1217 FILLER_0_28_304
*1218 FILLER_0_28_309
*1219 FILLER_0_28_327
*1220 FILLER_0_28_41
*1221 FILLER_0_28_53
*1222 FILLER_0_28_65
*1223 FILLER_0_28_73
*1224 FILLER_0_29_111
*1225 FILLER_0_29_113
*1226 FILLER_0_29_125
*1227 FILLER_0_29_137
*1228 FILLER_0_29_148
*1229 FILLER_0_29_15
*1230 FILLER_0_29_160
*1231 FILLER_0_29_172
*1232 FILLER_0_29_180
*1233 FILLER_0_29_192
*1234 FILLER_0_29_202
*1235 FILLER_0_29_214
*1236 FILLER_0_29_222
*1237 FILLER_0_29_225
*1238 FILLER_0_29_237
*1239 FILLER_0_29_250
*1240 FILLER_0_29_262
*1241 FILLER_0_29_27
*1242 FILLER_0_29_274
*1243 FILLER_0_29_297
*1244 FILLER_0_29_3
*1245 FILLER_0_29_303
*1246 FILLER_0_29_332
*1247 FILLER_0_29_39
*1248 FILLER_0_29_51
*1249 FILLER_0_29_55
*1250 FILLER_0_29_57
*1251 FILLER_0_29_69
*1252 FILLER_0_29_81
*1253 FILLER_0_29_87
*1254 FILLER_0_29_99
*1255 FILLER_0_2_109
*1256 FILLER_0_2_121
*1257 FILLER_0_2_133
*1258 FILLER_0_2_139
*1259 FILLER_0_2_141
*1260 FILLER_0_2_15
*1261 FILLER_0_2_153
*1262 FILLER_0_2_165
*1263 FILLER_0_2_177
*1264 FILLER_0_2_189
*1265 FILLER_0_2_195
*1266 FILLER_0_2_197
*1267 FILLER_0_2_209
*1268 FILLER_0_2_221
*1269 FILLER_0_2_233
*1270 FILLER_0_2_245
*1271 FILLER_0_2_251
*1272 FILLER_0_2_253
*1273 FILLER_0_2_265
*1274 FILLER_0_2_27
*1275 FILLER_0_2_277
*1276 FILLER_0_2_289
*1277 FILLER_0_2_29
*1278 FILLER_0_2_3
*1279 FILLER_0_2_301
*1280 FILLER_0_2_307
*1281 FILLER_0_2_309
*1282 FILLER_0_2_321
*1283 FILLER_0_2_333
*1284 FILLER_0_2_41
*1285 FILLER_0_2_53
*1286 FILLER_0_2_65
*1287 FILLER_0_2_77
*1288 FILLER_0_2_83
*1289 FILLER_0_2_85
*1290 FILLER_0_2_97
*1291 FILLER_0_30_118
*1292 FILLER_0_30_139
*1293 FILLER_0_30_148
*1294 FILLER_0_30_15
*1295 FILLER_0_30_184
*1296 FILLER_0_30_197
*1297 FILLER_0_30_203
*1298 FILLER_0_30_224
*1299 FILLER_0_30_230
*1300 FILLER_0_30_234
*1301 FILLER_0_30_242
*1302 FILLER_0_30_251
*1303 FILLER_0_30_266
*1304 FILLER_0_30_27
*1305 FILLER_0_30_274
*1306 FILLER_0_30_280
*1307 FILLER_0_30_29
*1308 FILLER_0_30_3
*1309 FILLER_0_30_334
*1310 FILLER_0_30_41
*1311 FILLER_0_30_53
*1312 FILLER_0_30_65
*1313 FILLER_0_30_77
*1314 FILLER_0_30_83
*1315 FILLER_0_30_85
*1316 FILLER_0_30_93
*1317 FILLER_0_31_122
*1318 FILLER_0_31_15
*1319 FILLER_0_31_157
*1320 FILLER_0_31_190
*1321 FILLER_0_31_194
*1322 FILLER_0_31_222
*1323 FILLER_0_31_225
*1324 FILLER_0_31_230
*1325 FILLER_0_31_238
*1326 FILLER_0_31_267
*1327 FILLER_0_31_27
*1328 FILLER_0_31_279
*1329 FILLER_0_31_295
*1330 FILLER_0_31_299
*1331 FILLER_0_31_3
*1332 FILLER_0_31_327
*1333 FILLER_0_31_39
*1334 FILLER_0_31_51
*1335 FILLER_0_31_55
*1336 FILLER_0_31_57
*1337 FILLER_0_31_69
*1338 FILLER_0_31_81
*1339 FILLER_0_31_89
*1340 FILLER_0_32_101
*1341 FILLER_0_32_15
*1342 FILLER_0_32_151
*1343 FILLER_0_32_163
*1344 FILLER_0_32_181
*1345 FILLER_0_32_193
*1346 FILLER_0_32_197
*1347 FILLER_0_32_226
*1348 FILLER_0_32_267
*1349 FILLER_0_32_27
*1350 FILLER_0_32_279
*1351 FILLER_0_32_287
*1352 FILLER_0_32_29
*1353 FILLER_0_32_3
*1354 FILLER_0_32_302
*1355 FILLER_0_32_326
*1356 FILLER_0_32_330
*1357 FILLER_0_32_334
*1358 FILLER_0_32_41
*1359 FILLER_0_32_53
*1360 FILLER_0_32_65
*1361 FILLER_0_32_77
*1362 FILLER_0_32_83
*1363 FILLER_0_32_85
*1364 FILLER_0_32_97
*1365 FILLER_0_33_105
*1366 FILLER_0_33_111
*1367 FILLER_0_33_113
*1368 FILLER_0_33_125
*1369 FILLER_0_33_134
*1370 FILLER_0_33_149
*1371 FILLER_0_33_15
*1372 FILLER_0_33_169
*1373 FILLER_0_33_185
*1374 FILLER_0_33_197
*1375 FILLER_0_33_228
*1376 FILLER_0_33_236
*1377 FILLER_0_33_261
*1378 FILLER_0_33_27
*1379 FILLER_0_33_273
*1380 FILLER_0_33_279
*1381 FILLER_0_33_281
*1382 FILLER_0_33_298
*1383 FILLER_0_33_3
*1384 FILLER_0_33_333
*1385 FILLER_0_33_39
*1386 FILLER_0_33_51
*1387 FILLER_0_33_55
*1388 FILLER_0_33_57
*1389 FILLER_0_33_69
*1390 FILLER_0_33_81
*1391 FILLER_0_33_93
*1392 FILLER_0_34_101
*1393 FILLER_0_34_113
*1394 FILLER_0_34_125
*1395 FILLER_0_34_135
*1396 FILLER_0_34_139
*1397 FILLER_0_34_141
*1398 FILLER_0_34_15
*1399 FILLER_0_34_153
*1400 FILLER_0_34_165
*1401 FILLER_0_34_173
*1402 FILLER_0_34_185
*1403 FILLER_0_34_191
*1404 FILLER_0_34_218
*1405 FILLER_0_34_230
*1406 FILLER_0_34_238
*1407 FILLER_0_34_251
*1408 FILLER_0_34_27
*1409 FILLER_0_34_272
*1410 FILLER_0_34_284
*1411 FILLER_0_34_29
*1412 FILLER_0_34_296
*1413 FILLER_0_34_3
*1414 FILLER_0_34_334
*1415 FILLER_0_34_41
*1416 FILLER_0_34_53
*1417 FILLER_0_34_65
*1418 FILLER_0_34_77
*1419 FILLER_0_34_83
*1420 FILLER_0_35_113
*1421 FILLER_0_35_148
*1422 FILLER_0_35_15
*1423 FILLER_0_35_157
*1424 FILLER_0_35_166
*1425 FILLER_0_35_177
*1426 FILLER_0_35_185
*1427 FILLER_0_35_221
*1428 FILLER_0_35_225
*1429 FILLER_0_35_237
*1430 FILLER_0_35_245
*1431 FILLER_0_35_267
*1432 FILLER_0_35_27
*1433 FILLER_0_35_276
*1434 FILLER_0_35_281
*1435 FILLER_0_35_293
*1436 FILLER_0_35_3
*1437 FILLER_0_35_39
*1438 FILLER_0_35_51
*1439 FILLER_0_35_55
*1440 FILLER_0_35_57
*1441 FILLER_0_35_69
*1442 FILLER_0_35_81
*1443 FILLER_0_36_128
*1444 FILLER_0_36_15
*1445 FILLER_0_36_178
*1446 FILLER_0_36_206
*1447 FILLER_0_36_228
*1448 FILLER_0_36_244
*1449 FILLER_0_36_256
*1450 FILLER_0_36_27
*1451 FILLER_0_36_274
*1452 FILLER_0_36_29
*1453 FILLER_0_36_3
*1454 FILLER_0_36_303
*1455 FILLER_0_36_309
*1456 FILLER_0_36_41
*1457 FILLER_0_36_53
*1458 FILLER_0_36_65
*1459 FILLER_0_36_77
*1460 FILLER_0_36_83
*1461 FILLER_0_36_85
*1462 FILLER_0_36_91
*1463 FILLER_0_37_134
*1464 FILLER_0_37_146
*1465 FILLER_0_37_15
*1466 FILLER_0_37_180
*1467 FILLER_0_37_192
*1468 FILLER_0_37_223
*1469 FILLER_0_37_231
*1470 FILLER_0_37_243
*1471 FILLER_0_37_27
*1472 FILLER_0_37_278
*1473 FILLER_0_37_297
*1474 FILLER_0_37_3
*1475 FILLER_0_37_307
*1476 FILLER_0_37_333
*1477 FILLER_0_37_39
*1478 FILLER_0_37_51
*1479 FILLER_0_37_55
*1480 FILLER_0_37_57
*1481 FILLER_0_37_69
*1482 FILLER_0_37_81
*1483 FILLER_0_37_93
*1484 FILLER_0_38_10
*1485 FILLER_0_38_102
*1486 FILLER_0_38_129
*1487 FILLER_0_38_137
*1488 FILLER_0_38_14
*1489 FILLER_0_38_144
*1490 FILLER_0_38_150
*1491 FILLER_0_38_154
*1492 FILLER_0_38_162
*1493 FILLER_0_38_169
*1494 FILLER_0_38_18
*1495 FILLER_0_38_181
*1496 FILLER_0_38_193
*1497 FILLER_0_38_201
*1498 FILLER_0_38_22
*1499 FILLER_0_38_220
*1500 FILLER_0_38_235
*1501 FILLER_0_38_247
*1502 FILLER_0_38_251
*1503 FILLER_0_38_270
*1504 FILLER_0_38_279
*1505 FILLER_0_38_306
*1506 FILLER_0_38_313
*1507 FILLER_0_38_32
*1508 FILLER_0_38_327
*1509 FILLER_0_38_38
*1510 FILLER_0_38_42
*1511 FILLER_0_38_46
*1512 FILLER_0_38_50
*1513 FILLER_0_38_54
*1514 FILLER_0_38_57
*1515 FILLER_0_38_6
*1516 FILLER_0_38_62
*1517 FILLER_0_38_66
*1518 FILLER_0_38_70
*1519 FILLER_0_38_74
*1520 FILLER_0_38_78
*1521 FILLER_0_38_88
*1522 FILLER_0_38_94
*1523 FILLER_0_38_98
*1524 FILLER_0_3_105
*1525 FILLER_0_3_111
*1526 FILLER_0_3_113
*1527 FILLER_0_3_125
*1528 FILLER_0_3_137
*1529 FILLER_0_3_149
*1530 FILLER_0_3_15
*1531 FILLER_0_3_161
*1532 FILLER_0_3_167
*1533 FILLER_0_3_169
*1534 FILLER_0_3_181
*1535 FILLER_0_3_193
*1536 FILLER_0_3_205
*1537 FILLER_0_3_217
*1538 FILLER_0_3_223
*1539 FILLER_0_3_225
*1540 FILLER_0_3_237
*1541 FILLER_0_3_249
*1542 FILLER_0_3_261
*1543 FILLER_0_3_27
*1544 FILLER_0_3_273
*1545 FILLER_0_3_279
*1546 FILLER_0_3_281
*1547 FILLER_0_3_293
*1548 FILLER_0_3_3
*1549 FILLER_0_3_305
*1550 FILLER_0_3_317
*1551 FILLER_0_3_329
*1552 FILLER_0_3_39
*1553 FILLER_0_3_51
*1554 FILLER_0_3_55
*1555 FILLER_0_3_57
*1556 FILLER_0_3_69
*1557 FILLER_0_3_81
*1558 FILLER_0_3_93
*1559 FILLER_0_4_109
*1560 FILLER_0_4_121
*1561 FILLER_0_4_133
*1562 FILLER_0_4_139
*1563 FILLER_0_4_141
*1564 FILLER_0_4_15
*1565 FILLER_0_4_153
*1566 FILLER_0_4_165
*1567 FILLER_0_4_177
*1568 FILLER_0_4_189
*1569 FILLER_0_4_195
*1570 FILLER_0_4_197
*1571 FILLER_0_4_209
*1572 FILLER_0_4_221
*1573 FILLER_0_4_233
*1574 FILLER_0_4_245
*1575 FILLER_0_4_251
*1576 FILLER_0_4_253
*1577 FILLER_0_4_265
*1578 FILLER_0_4_27
*1579 FILLER_0_4_277
*1580 FILLER_0_4_289
*1581 FILLER_0_4_29
*1582 FILLER_0_4_3
*1583 FILLER_0_4_301
*1584 FILLER_0_4_307
*1585 FILLER_0_4_309
*1586 FILLER_0_4_321
*1587 FILLER_0_4_333
*1588 FILLER_0_4_41
*1589 FILLER_0_4_53
*1590 FILLER_0_4_65
*1591 FILLER_0_4_77
*1592 FILLER_0_4_83
*1593 FILLER_0_4_85
*1594 FILLER_0_4_97
*1595 FILLER_0_5_105
*1596 FILLER_0_5_111
*1597 FILLER_0_5_113
*1598 FILLER_0_5_125
*1599 FILLER_0_5_137
*1600 FILLER_0_5_149
*1601 FILLER_0_5_15
*1602 FILLER_0_5_161
*1603 FILLER_0_5_167
*1604 FILLER_0_5_169
*1605 FILLER_0_5_181
*1606 FILLER_0_5_193
*1607 FILLER_0_5_205
*1608 FILLER_0_5_217
*1609 FILLER_0_5_223
*1610 FILLER_0_5_225
*1611 FILLER_0_5_237
*1612 FILLER_0_5_249
*1613 FILLER_0_5_261
*1614 FILLER_0_5_27
*1615 FILLER_0_5_273
*1616 FILLER_0_5_279
*1617 FILLER_0_5_281
*1618 FILLER_0_5_293
*1619 FILLER_0_5_3
*1620 FILLER_0_5_305
*1621 FILLER_0_5_317
*1622 FILLER_0_5_329
*1623 FILLER_0_5_39
*1624 FILLER_0_5_51
*1625 FILLER_0_5_55
*1626 FILLER_0_5_57
*1627 FILLER_0_5_69
*1628 FILLER_0_5_81
*1629 FILLER_0_5_93
*1630 FILLER_0_6_101
*1631 FILLER_0_6_118
*1632 FILLER_0_6_130
*1633 FILLER_0_6_138