*SPEF "ieee 1481-1999"
*DESIGN "tt_um_PWM_Sine_UART"
*DATE "17:29:37 Friday April 19, 2024"
*VENDOR "The OpenROAD Project"
*PROGRAM "OpenROAD"
*VERSION "0889970d1790a2617e69f253221b8bd7626e51dc"
*DESIGN_FLOW "NAME_SCOPE LOCAL" "PIN_CAP NONE"
*DIVIDER /
*DELIMITER :
*BUS_DELIMITER []
*T_UNIT 1 NS
*C_UNIT 1 PF
*R_UNIT 1 OHM
*L_UNIT 1 HENRY

*NAME_MAP
*3 clk
*4 ena
*5 rst_n
*6 ui_in[0]
*7 ui_in[1]
*8 ui_in[2]
*9 ui_in[3]
*10 ui_in[4]
*11 ui_in[5]
*12 ui_in[6]
*13 ui_in[7]
*14 uio_in[0]
*15 uio_in[1]
*16 uio_in[2]
*17 uio_in[3]
*18 uio_in[4]
*19 uio_in[5]
*20 uio_in[6]
*21 uio_in[7]
*22 net6
*23 net7
*24 net8
*25 net9
*26 net10
*27 net11
*28 net12
*29 net13
*30 net14
*31 net15
*32 net16
*33 net17
*34 net18
*35 net19
*36 net20
*37 net21
*38 uo_out[0]
*39 net22
*40 uo_out[2]
*41 net23
*42 net24
*43 net25
*44 net26
*45 net27
*46 PWM_Sine_inst\.counter\[0\]
*47 PWM_Sine_inst\.counter\[10\]
*48 PWM_Sine_inst\.counter\[11\]
*49 PWM_Sine_inst\.counter\[12\]
*50 PWM_Sine_inst\.counter\[13\]
*51 PWM_Sine_inst\.counter\[14\]
*52 PWM_Sine_inst\.counter\[15\]
*53 PWM_Sine_inst\.counter\[16\]
*54 PWM_Sine_inst\.counter\[17\]
*55 PWM_Sine_inst\.counter\[18\]
*56 PWM_Sine_inst\.counter\[19\]
*57 PWM_Sine_inst\.counter\[1\]
*58 PWM_Sine_inst\.counter\[20\]
*59 PWM_Sine_inst\.counter\[21\]
*60 PWM_Sine_inst\.counter\[22\]
*61 PWM_Sine_inst\.counter\[23\]
*62 PWM_Sine_inst\.counter\[24\]
*63 PWM_Sine_inst\.counter\[25\]
*64 PWM_Sine_inst\.counter\[26\]
*65 PWM_Sine_inst\.counter\[27\]
*66 PWM_Sine_inst\.counter\[28\]
*67 PWM_Sine_inst\.counter\[29\]
*68 PWM_Sine_inst\.counter\[2\]
*69 PWM_Sine_inst\.counter\[30\]
*70 PWM_Sine_inst\.counter\[31\]
*71 PWM_Sine_inst\.counter\[3\]
*72 PWM_Sine_inst\.counter\[4\]
*73 PWM_Sine_inst\.counter\[5\]
*74 PWM_Sine_inst\.counter\[6\]
*75 PWM_Sine_inst\.counter\[7\]
*76 PWM_Sine_inst\.counter\[8\]
*77 PWM_Sine_inst\.counter\[9\]
*78 PWM_Sine_inst\.freq\[0\]
*79 PWM_Sine_inst\.freq\[10\]
*80 PWM_Sine_inst\.freq\[1\]
*81 PWM_Sine_inst\.freq\[2\]
*82 PWM_Sine_inst\.freq\[3\]
*83 PWM_Sine_inst\.freq\[4\]
*84 PWM_Sine_inst\.freq\[5\]
*85 PWM_Sine_inst\.freq\[6\]
*86 PWM_Sine_inst\.freq\[7\]
*87 PWM_Sine_inst\.freq\[8\]
*88 PWM_Sine_inst\.freq\[9\]
*89 PWM_Sine_inst\.i_uart_rx\.bit_counter\[0\]
*90 PWM_Sine_inst\.i_uart_rx\.bit_counter\[1\]
*91 PWM_Sine_inst\.i_uart_rx\.bit_counter\[2\]
*92 PWM_Sine_inst\.i_uart_rx\.bit_counter\[3\]
*93 PWM_Sine_inst\.i_uart_rx\.bit_sample
*94 PWM_Sine_inst\.i_uart_rx\.cycle_counter\[0\]
*95 PWM_Sine_inst\.i_uart_rx\.cycle_counter\[10\]
*96 PWM_Sine_inst\.i_uart_rx\.cycle_counter\[11\]
*97 PWM_Sine_inst\.i_uart_rx\.cycle_counter\[12\]
*98 PWM_Sine_inst\.i_uart_rx\.cycle_counter\[1\]
*99 PWM_Sine_inst\.i_uart_rx\.cycle_counter\[2\]
*100 PWM_Sine_inst\.i_uart_rx\.cycle_counter\[3\]
*101 PWM_Sine_inst\.i_uart_rx\.cycle_counter\[4\]
*102 PWM_Sine_inst\.i_uart_rx\.cycle_counter\[5\]
*103 PWM_Sine_inst\.i_uart_rx\.cycle_counter\[6\]
*104 PWM_Sine_inst\.i_uart_rx\.cycle_counter\[7\]
*105 PWM_Sine_inst\.i_uart_rx\.cycle_counter\[8\]
*106 PWM_Sine_inst\.i_uart_rx\.cycle_counter\[9\]
*107 PWM_Sine_inst\.i_uart_rx\.fsm_state\[0\]
*108 PWM_Sine_inst\.i_uart_rx\.fsm_state\[1\]
*109 PWM_Sine_inst\.i_uart_rx\.fsm_state\[2\]
*110 PWM_Sine_inst\.i_uart_rx\.fsm_state\[3\]
*111 PWM_Sine_inst\.i_uart_rx\.recieved_data\[0\]
*112 PWM_Sine_inst\.i_uart_rx\.recieved_data\[1\]
*113 PWM_Sine_inst\.i_uart_rx\.recieved_data\[2\]
*114 PWM_Sine_inst\.i_uart_rx\.recieved_data\[3\]
*115 PWM_Sine_inst\.i_uart_rx\.recieved_data\[4\]
*116 PWM_Sine_inst\.i_uart_rx\.recieved_data\[5\]
*117 PWM_Sine_inst\.i_uart_rx\.recieved_data\[6\]
*118 PWM_Sine_inst\.i_uart_rx\.recieved_data\[7\]
*119 PWM_Sine_inst\.i_uart_rx\.rxd_reg
*120 PWM_Sine_inst\.i_uart_rx\.rxd_reg_0
*121 PWM_Sine_inst\.i_uart_rx\.uart_rx_data\[0\]
*122 PWM_Sine_inst\.i_uart_rx\.uart_rx_data\[1\]
*123 PWM_Sine_inst\.i_uart_rx\.uart_rx_data\[2\]
*124 PWM_Sine_inst\.i_uart_rx\.uart_rx_data\[3\]
*125 PWM_Sine_inst\.i_uart_rx\.uart_rx_data\[4\]
*126 PWM_Sine_inst\.i_uart_rx\.uart_rx_data\[5\]
*127 PWM_Sine_inst\.i_uart_rx\.uart_rx_data\[6\]
*128 PWM_Sine_inst\.i_uart_rx\.uart_rx_data\[7\]
*129 PWM_Sine_inst\.i_uart_tx\.bit_counter\[0\]
*130 PWM_Sine_inst\.i_uart_tx\.bit_counter\[1\]
*131 PWM_Sine_inst\.i_uart_tx\.bit_counter\[2\]
*132 PWM_Sine_inst\.i_uart_tx\.bit_counter\[3\]
*133 PWM_Sine_inst\.i_uart_tx\.cycle_counter\[0\]
*134 PWM_Sine_inst\.i_uart_tx\.cycle_counter\[10\]
*135 PWM_Sine_inst\.i_uart_tx\.cycle_counter\[11\]
*136 PWM_Sine_inst\.i_uart_tx\.cycle_counter\[12\]
*137 PWM_Sine_inst\.i_uart_tx\.cycle_counter\[1\]
*138 PWM_Sine_inst\.i_uart_tx\.cycle_counter\[2\]
*139 PWM_Sine_inst\.i_uart_tx\.cycle_counter\[3\]
*140 PWM_Sine_inst\.i_uart_tx\.cycle_counter\[4\]
*141 PWM_Sine_inst\.i_uart_tx\.cycle_counter\[5\]
*142 PWM_Sine_inst\.i_uart_tx\.cycle_counter\[6\]
*143 PWM_Sine_inst\.i_uart_tx\.cycle_counter\[7\]
*144 PWM_Sine_inst\.i_uart_tx\.cycle_counter\[8\]
*145 PWM_Sine_inst\.i_uart_tx\.cycle_counter\[9\]
*146 PWM_Sine_inst\.i_uart_tx\.data_to_send\[0\]
*147 PWM_Sine_inst\.i_uart_tx\.data_to_send\[1\]
*148 PWM_Sine_inst\.i_uart_tx\.data_to_send\[2\]
*149 PWM_Sine_inst\.i_uart_tx\.data_to_send\[3\]
*150 PWM_Sine_inst\.i_uart_tx\.data_to_send\[4\]
*151 PWM_Sine_inst\.i_uart_tx\.data_to_send\[5\]
*152 PWM_Sine_inst\.i_uart_tx\.data_to_send\[6\]
*153 PWM_Sine_inst\.i_uart_tx\.data_to_send\[7\]
*154 PWM_Sine_inst\.i_uart_tx\.fsm_state\[0\]
*155 PWM_Sine_inst\.i_uart_tx\.fsm_state\[1\]
*156 PWM_Sine_inst\.i_uart_tx\.fsm_state\[2\]
*157 PWM_Sine_inst\.i_uart_tx\.fsm_state\[3\]
*158 PWM_Sine_inst\.i_uart_tx\.txd_reg
*159 PWM_Sine_inst\.lut_addr\[0\]
*160 PWM_Sine_inst\.lut_addr\[1\]
*161 PWM_Sine_inst\.lut_addr\[2\]
*162 PWM_Sine_inst\.lut_addr\[3\]
*163 PWM_Sine_inst\.lut_addr\[4\]
*164 PWM_Sine_inst\.lut_addr\[5\]
*165 PWM_Sine_inst\.lut_addr\[6\]
*166 PWM_Sine_inst\.lut_addr\[7\]
*167 PWM_Sine_inst\.pwm_out
*168 _0000_
*169 _0001_
*170 _0002_
*171 _0003_
*172 _0004_
*173 _0005_
*174 _0006_
*175 _0007_
*176 _0008_
*177 _0009_
*178 _0010_
*179 _0011_
*180 _0012_
*181 _0013_
*182 _0014_
*183 _0015_
*184 _0016_
*185 _0017_
*186 _0018_
*187 _0019_
*188 _0020_
*189 _0021_
*190 _0022_
*191 _0023_
*192 _0024_
*193 _0025_
*194 _0026_
*195 _0027_
*196 _0028_
*197 _0029_
*198 _0030_
*199 _0031_
*200 _0032_
*201 _0033_
*202 _0034_
*203 _0035_
*204 _0036_
*205 _0037_
*206 _0038_
*207 _0039_
*208 _0040_
*209 _0041_
*210 _0042_
*211 _0043_
*212 _0044_
*213 _0045_
*214 _0046_
*215 _0047_
*216 _0048_
*217 _0049_
*218 _0071_
*219 _0072_
*220 _0073_
*221 _0074_
*222 _0075_
*223 _0076_
*224 _0077_
*225 _0078_
*226 _0079_
*227 _0080_
*228 _0081_
*229 _0082_
*230 _0083_
*231 _0084_
*232 _0085_
*233 _0086_
*234 _0087_
*235 _0088_
*236 _0089_
*237 _0090_
*238 _0091_
*239 _0092_
*240 _0093_
*241 _0094_
*242 _0095_
*243 _0096_
*244 _0097_
*245 _0098_
*246 _0099_
*247 _0100_
*248 _0101_
*249 _0102_
*250 _0103_
*251 _0104_
*252 _0105_
*253 _0106_
*254 _0107_
*255 _0108_
*256 _0109_
*257 _0110_
*258 _0111_
*259 _0112_
*260 _0113_
*261 _0114_
*262 _0115_
*263 _0116_
*264 _0117_
*265 _0118_
*266 _0119_
*267 _0120_
*268 _0121_
*269 _0122_
*270 _0123_
*271 _0124_
*272 _0125_
*273 _0126_
*274 _0127_
*275 _0128_
*276 _0129_
*277 _0130_
*278 _0131_
*279 _0132_
*280 _0133_
*281 _0134_
*282 _0135_
*283 _0136_
*284 _0137_
*285 _0138_
*286 _0139_
*287 _0140_
*288 _0141_
*289 _0142_
*290 _0143_
*291 _0144_
*292 _0145_
*293 _0146_
*294 _0147_
*295 _0148_
*296 _0149_
*297 _0150_
*298 _0151_
*299 _0152_
*300 _0153_
*301 _0154_
*302 _0155_
*303 _0156_
*304 _0157_
*305 _0158_
*306 _0159_
*307 _0160_
*308 _0161_
*309 _0162_
*310 _0163_
*311 _0164_
*312 _0165_
*313 _0166_
*314 _0167_
*315 _0168_
*316 _0169_
*317 _0170_
*318 _0171_
*319 _0172_
*320 _0173_
*321 _0174_
*322 _0175_
*323 _0176_
*324 _0177_
*325 _0178_
*326 _0179_
*327 _0180_
*328 _0181_
*329 _0182_
*330 _0183_
*331 _0184_
*332 _0185_
*333 _0186_
*334 _0187_
*335 _0188_
*336 _0189_
*337 _0190_
*338 _0191_
*339 _0192_
*340 _0193_
*341 _0194_
*342 _0195_
*343 _0196_
*344 _0197_
*345 _0198_
*346 _0199_
*347 _0200_
*348 _0201_
*349 _0202_
*350 _0203_
*351 _0204_
*352 _0205_
*353 _0206_
*354 _0207_
*355 _0208_
*356 _0209_
*357 _0210_
*358 _0211_
*359 _0212_
*360 _0213_
*361 _0214_
*362 _0215_
*363 _0216_
*364 _0217_
*365 _0218_
*366 _0219_
*367 _0220_
*368 _0221_
*369 _0222_
*370 _0223_
*371 _0224_
*372 _0225_
*373 _0226_
*374 _0227_
*375 _0228_
*376 _0229_
*377 _0230_
*378 _0231_
*379 _0232_
*380 _0233_
*381 _0234_
*382 _0235_
*383 _0236_
*384 _0237_
*385 _0238_
*386 _0239_
*387 _0240_
*388 _0241_
*389 _0242_
*390 _0243_
*391 _0244_
*392 _0245_
*393 _0246_
*394 _0247_
*395 _0248_
*396 _0249_
*397 _0250_
*398 _0251_
*399 _0252_
*400 _0253_
*401 _0254_
*402 _0255_
*403 _0256_
*404 _0257_
*405 _0258_
*406 _0259_
*407 _0260_
*408 _0261_
*409 _0262_
*410 _0263_
*411 _0264_
*412 _0265_
*413 _0266_
*414 _0267_
*415 _0268_
*416 _0269_
*417 _0270_
*418 _0271_
*419 _0272_
*420 _0273_
*421 _0274_
*422 _0275_
*423 _0276_
*424 _0277_
*425 _0278_
*426 _0279_
*427 _0280_
*428 _0281_
*429 _0282_
*430 _0283_
*431 _0284_
*432 _0285_
*433 _0286_
*434 _0287_
*435 _0288_
*436 _0289_
*437 _0290_
*438 _0291_
*439 _0292_
*440 _0293_
*441 _0294_
*442 _0295_
*443 _0296_
*444 _0297_
*445 _0298_
*446 _0299_
*447 _0300_
*448 _0301_
*449 _0302_
*450 _0303_
*451 _0304_
*452 _0305_
*453 _0306_
*454 _0307_
*455 _0308_
*456 _0309_
*457 _0310_
*458 _0311_
*459 _0312_
*460 _0313_
*461 _0314_
*462 _0315_
*463 _0316_
*464 _0317_
*465 _0318_
*466 _0319_
*467 _0320_
*468 _0321_
*469 _0322_
*470 _0323_
*471 _0324_
*472 _0325_
*473 _0326_
*474 _0327_
*475 _0328_
*476 _0329_
*477 _0330_
*478 _0331_
*479 _0332_
*480 _0333_
*481 _0334_
*482 _0335_
*483 _0336_
*484 _0337_
*485 _0338_
*486 _0339_
*487 _0340_
*488 _0341_
*489 _0342_
*490 _0343_
*491 _0344_
*492 _0345_
*493 _0346_
*494 _0347_
*495 _0348_
*496 _0349_
*497 _0350_
*498 _0351_
*499 _0352_
*500 _0353_
*501 _0354_
*502 _0355_
*503 _0356_
*504 _0357_
*505 _0358_
*506 _0359_
*507 _0360_
*508 _0361_
*509 _0362_
*510 _0363_
*511 _0364_
*512 _0365_
*513 _0366_
*514 _0367_
*515 _0368_
*516 _0369_
*517 _0370_
*518 _0371_
*519 _0372_
*520 _0373_
*521 _0374_
*522 _0375_
*523 _0376_
*524 _0377_
*525 _0378_
*526 _0379_
*527 _0380_
*528 _0381_
*529 _0382_
*530 _0383_
*531 _0384_
*532 _0385_
*533 _0386_
*534 _0387_
*535 _0388_
*536 _0389_
*537 _0390_
*538 _0391_
*539 _0392_
*540 _0393_
*541 _0394_
*542 _0395_
*543 _0396_
*544 _0397_
*545 _0398_
*546 _0399_
*547 _0400_
*548 _0401_
*549 _0402_
*550 _0403_
*551 _0404_
*552 _0405_
*553 _0406_
*554 _0407_
*555 _0408_
*556 _0409_
*557 _0410_
*558 _0411_
*559 _0412_
*560 _0413_
*561 _0414_
*562 _0415_
*563 _0416_
*564 _0417_
*565 _0418_
*566 _0419_
*567 _0420_
*568 _0421_
*569 _0422_
*570 _0423_
*571 _0424_
*572 _0425_
*573 _0426_
*574 _0427_
*575 _0428_
*576 _0429_
*577 _0430_
*578 _0431_
*579 _0432_
*580 _0433_
*581 _0434_
*582 _0435_
*583 _0436_
*584 _0437_
*585 _0438_
*586 _0439_
*587 _0440_
*588 _0441_
*589 _0442_
*590 _0443_
*591 _0444_
*592 _0445_
*593 _0446_
*594 _0447_
*595 _0448_
*596 _0449_
*597 _0450_
*598 _0451_
*599 _0452_
*600 _0453_
*601 _0454_
*602 _0455_
*603 _0456_
*604 _0457_
*605 _0458_
*606 _0459_
*607 _0460_
*608 _0461_
*609 _0462_
*610 _0463_
*611 _0464_
*612 _0465_
*613 _0466_
*614 _0467_
*615 _0468_
*616 _0469_
*617 _0470_
*618 _0471_
*619 _0472_
*620 _0473_
*621 _0474_
*622 _0475_
*623 _0476_
*624 _0477_
*625 _0478_
*626 _0479_
*627 _0480_
*628 _0481_
*629 _0482_
*630 _0483_
*631 _0484_
*632 _0485_
*633 _0486_
*634 _0487_
*635 _0488_
*636 _0489_
*637 _0490_
*638 _0491_
*639 _0492_
*640 _0493_
*641 _0494_
*642 _0495_
*643 _0496_
*644 _0497_
*645 _0498_
*646 _0499_
*647 _0500_
*648 _0501_
*649 _0502_
*650 _0503_
*651 _0504_
*652 _0505_
*653 _0506_
*654 _0507_
*655 _0508_
*656 _0509_
*657 _0510_
*658 _0511_
*659 _0512_
*660 _0513_
*661 _0514_
*662 _0515_
*663 _0516_
*664 _0517_
*665 _0518_
*666 _0519_
*667 _0520_
*668 _0521_
*669 _0522_
*670 _0523_
*671 _0524_
*672 _0525_
*673 _0526_
*674 _0527_
*675 _0528_
*676 _0529_
*677 _0530_
*678 _0531_
*679 _0532_
*680 _0533_
*681 _0534_
*682 _0535_
*683 _0536_
*684 _0537_
*685 _0538_
*686 _0539_
*687 _0540_
*688 _0541_
*689 _0542_
*690 _0543_
*691 _0544_
*692 _0545_
*693 _0546_
*694 _0547_
*695 _0548_
*696 _0549_
*697 _0550_
*698 _0551_
*699 _0552_
*700 _0553_
*701 _0554_
*702 _0555_
*703 _0556_
*704 _0557_
*705 _0558_
*706 _0559_
*707 _0560_
*708 _0561_
*709 _0562_
*710 _0563_
*711 _0564_
*712 _0565_
*713 _0566_
*714 _0567_
*715 _0568_
*716 _0569_
*717 _0570_
*718 _0571_
*719 _0572_
*720 _0573_
*721 _0574_
*722 _0575_
*723 _0576_
*724 _0577_
*725 _0578_
*726 _0579_
*727 _0580_
*728 _0581_
*729 _0582_
*730 _0583_
*731 _0584_
*732 _0585_
*733 _0586_
*734 _0587_
*735 _0588_
*736 _0589_
*737 _0590_
*738 _0591_
*739 _0592_
*740 _0593_
*741 _0594_
*742 _0595_
*743 _0596_
*744 _0597_
*745 _0598_
*746 _0599_
*747 _0600_
*748 _0601_
*749 _0602_
*750 _0603_
*751 _0604_
*752 _0605_
*753 _0606_
*754 _0607_
*755 clknet_0_clk
*756 clknet_4_0_0_clk
*757 clknet_4_10_0_clk
*758 clknet_4_11_0_clk
*759 clknet_4_12_0_clk
*760 clknet_4_13_0_clk
*761 clknet_4_14_0_clk
*762 clknet_4_15_0_clk
*763 clknet_4_1_0_clk
*764 clknet_4_2_0_clk
*765 clknet_4_3_0_clk
*766 clknet_4_4_0_clk
*767 clknet_4_5_0_clk
*768 clknet_4_6_0_clk
*769 clknet_4_7_0_clk
*770 clknet_4_8_0_clk
*771 clknet_4_9_0_clk
*772 net1
*773 net100
*774 net101
*775 net102
*776 net103
*777 net104
*778 net105
*779 net106
*780 net107
*781 net108
*782 net109
*783 net110
*784 net111
*785 net112
*786 net113
*787 net114
*788 net115
*789 net116
*790 net117
*791 net118
*792 net2
*793 net28
*794 net29
*795 net3
*796 net30
*797 net31
*798 net32
*799 net33
*800 net34
*801 net35
*802 net36
*803 net37
*804 net38
*805 net39
*806 net4
*807 net40
*808 net41
*809 net42
*810 net43
*811 net44
*812 net45
*813 net46
*814 net47
*815 net48
*816 net49
*817 net5
*818 net50
*819 net51
*820 net52
*821 net53
*822 net54
*823 net55
*824 net56
*825 net57
*826 net58
*827 net59
*828 net60
*829 net61
*830 net62
*831 net63
*832 net64
*833 net65
*834 net66
*835 net67
*836 net68
*837 net69
*838 net70
*839 net71
*840 net72
*841 net73
*842 net74
*843 net75
*844 net76
*845 net77
*846 net78
*847 net79
*848 net80
*849 net81
*850 net82
*851 net83
*852 net84
*853 net85
*854 net86
*855 net87
*856 net88
*857 net89
*858 net90
*859 net91
*860 net92
*861 net93
*862 net94
*863 net95
*864 net96
*865 net97
*866 net98
*867 net99
*868 FILLER_0_0_109
*869 FILLER_0_0_113
*870 FILLER_0_0_125
*871 FILLER_0_0_137
*872 FILLER_0_0_141
*873 FILLER_0_0_15
*874 FILLER_0_0_153
*875 FILLER_0_0_165
*876 FILLER_0_0_169
*877 FILLER_0_0_181
*878 FILLER_0_0_193
*879 FILLER_0_0_197
*880 FILLER_0_0_209
*881 FILLER_0_0_221
*882 FILLER_0_0_225
*883 FILLER_0_0_237
*884 FILLER_0_0_249
*885 FILLER_0_0_253
*886 FILLER_0_0_265
*887 FILLER_0_0_27
*888 FILLER_0_0_277
*889 FILLER_0_0_281
*890 FILLER_0_0_29
*891 FILLER_0_0_293
*892 FILLER_0_0_3
*893 FILLER_0_0_305
*894 FILLER_0_0_309
*895 FILLER_0_0_321
*896 FILLER_0_0_333
*897 FILLER_0_0_41
*898 FILLER_0_0_53
*899 FILLER_0_0_57
*900 FILLER_0_0_69
*901 FILLER_0_0_81
*902 FILLER_0_0_85
*903 FILLER_0_0_97
*904 FILLER_0_10_108
*905 FILLER_0_10_136
*906 FILLER_0_10_15
*907 FILLER_0_10_169
*908 FILLER_0_10_181
*909 FILLER_0_10_189
*910 FILLER_0_10_223
*911 FILLER_0_10_231
*912 FILLER_0_10_248
*913 FILLER_0_10_253
*914 FILLER_0_10_257
*915 FILLER_0_10_27
*916 FILLER_0_10_283
*917 FILLER_0_10_29
*918 FILLER_0_10_295
*919 FILLER_0_10_3
*920 FILLER_0_10_309
*921 FILLER_0_10_41
*922 FILLER_0_10_58
*923 FILLER_0_10_70
*924 FILLER_0_10_82
*925 FILLER_0_10_85
*926 FILLER_0_10_91
*927 FILLER_0_11_131
*928 FILLER_0_11_149
*929 FILLER_0_11_15
*930 FILLER_0_11_158
*931 FILLER_0_11_166
*932 FILLER_0_11_169
*933 FILLER_0_11_181
*934 FILLER_0_11_193
*935 FILLER_0_11_205
*936 FILLER_0_11_210
*937 FILLER_0_11_222
*938 FILLER_0_11_225
*939 FILLER_0_11_237
*940 FILLER_0_11_243
*941 FILLER_0_11_255
*942 FILLER_0_11_263
*943 FILLER_0_11_27
*944 FILLER_0_11_278
*945 FILLER_0_11_289
*946 FILLER_0_11_3
*947 FILLER_0_11_301
*948 FILLER_0_11_326
*949 FILLER_0_11_334
*950 FILLER_0_11_39
*951 FILLER_0_11_73
*952 FILLER_0_11_85
*953 FILLER_0_11_91
*954 FILLER_0_12_122
*955 FILLER_0_12_130
*956 FILLER_0_12_138
*957 FILLER_0_12_141
*958 FILLER_0_12_145
*959 FILLER_0_12_15
*960 FILLER_0_12_160
*961 FILLER_0_12_172
*962 FILLER_0_12_177
*963 FILLER_0_12_194
*964 FILLER_0_12_197
*965 FILLER_0_12_209
*966 FILLER_0_12_221
*967 FILLER_0_12_244
*968 FILLER_0_12_248
*969 FILLER_0_12_269
*970 FILLER_0_12_27
*971 FILLER_0_12_29
*972 FILLER_0_12_292
*973 FILLER_0_12_3
*974 FILLER_0_12_300
*975 FILLER_0_12_328
*976 FILLER_0_12_334
*977 FILLER_0_12_35
*978 FILLER_0_12_64
*979 FILLER_0_12_76
*980 FILLER_0_12_85
*981 FILLER_0_12_93
*982 FILLER_0_13_120
*983 FILLER_0_13_132
*984 FILLER_0_13_15
*985 FILLER_0_13_165
*986 FILLER_0_13_197
*987 FILLER_0_13_205
*988 FILLER_0_13_27
*989 FILLER_0_13_281
*990 FILLER_0_13_295
*991 FILLER_0_13_3
*992 FILLER_0_13_303
*993 FILLER_0_13_327
*994 FILLER_0_13_39
*995 FILLER_0_13_46
*996 FILLER_0_13_50
*997 FILLER_0_13_57
*998 FILLER_0_13_69
*999 FILLER_0_13_81
*1000 FILLER_0_13_93
*1001 FILLER_0_14_103
*1002 FILLER_0_14_107
*1003 FILLER_0_14_139
*1004 FILLER_0_14_15
*1005 FILLER_0_14_156
*1006 FILLER_0_14_162
*1007 FILLER_0_14_166
*1008 FILLER_0_14_174
*1009 FILLER_0_14_197
*1010 FILLER_0_14_222
*1011 FILLER_0_14_251
*1012 FILLER_0_14_263
*1013 FILLER_0_14_27
*1014 FILLER_0_14_275
*1015 FILLER_0_14_287
*1016 FILLER_0_14_29
*1017 FILLER_0_14_295
*1018 FILLER_0_14_3
*1019 FILLER_0_14_309
*1020 FILLER_0_14_328
*1021 FILLER_0_14_334
*1022 FILLER_0_14_41
*1023 FILLER_0_14_53
*1024 FILLER_0_14_75
*1025 FILLER_0_14_83
*1026 FILLER_0_14_85
*1027 FILLER_0_14_97
*1028 FILLER_0_15_131
*1029 FILLER_0_15_139
*1030 FILLER_0_15_15
*1031 FILLER_0_15_176
*1032 FILLER_0_15_184
*1033 FILLER_0_15_202
*1034 FILLER_0_15_210
*1035 FILLER_0_15_217
*1036 FILLER_0_15_223
*1037 FILLER_0_15_23
*1038 FILLER_0_15_255
*1039 FILLER_0_15_278
*1040 FILLER_0_15_281
*1041 FILLER_0_15_293
*1042 FILLER_0_15_3
*1043 FILLER_0_15_308
*1044 FILLER_0_15_334
*1045 FILLER_0_15_40
*1046 FILLER_0_15_52
*1047 FILLER_0_15_57
*1048 FILLER_0_15_61
*1049 FILLER_0_15_89
*1050 FILLER_0_15_95
*1051 FILLER_0_16_11
*1052 FILLER_0_16_128
*1053 FILLER_0_16_141
*1054 FILLER_0_16_153
*1055 FILLER_0_16_165
*1056 FILLER_0_16_180
*1057 FILLER_0_16_194
*1058 FILLER_0_16_205
*1059 FILLER_0_16_213
*1060 FILLER_0_16_227
*1061 FILLER_0_16_235
*1062 FILLER_0_16_239
*1063 FILLER_0_16_251
*1064 FILLER_0_16_253
*1065 FILLER_0_16_261
*1066 FILLER_0_16_265
*1067 FILLER_0_16_3
*1068 FILLER_0_16_305
*1069 FILLER_0_16_333
*1070 FILLER_0_16_51
*1071 FILLER_0_16_83
*1072 FILLER_0_16_85
*1073 FILLER_0_17_100
*1074 FILLER_0_17_110
*1075 FILLER_0_17_126
*1076 FILLER_0_17_138
*1077 FILLER_0_17_146
*1078 FILLER_0_17_15
*1079 FILLER_0_17_153
*1080 FILLER_0_17_165
*1081 FILLER_0_17_185
*1082 FILLER_0_17_193
*1083 FILLER_0_17_204
*1084 FILLER_0_17_212
*1085 FILLER_0_17_223
*1086 FILLER_0_17_246
*1087 FILLER_0_17_252
*1088 FILLER_0_17_297
*1089 FILLER_0_17_3
*1090 FILLER_0_17_329
*1091 FILLER_0_17_41
*1092 FILLER_0_17_53
*1093 FILLER_0_17_57
*1094 FILLER_0_17_88
*1095 FILLER_0_18_109
*1096 FILLER_0_18_121
*1097 FILLER_0_18_127
*1098 FILLER_0_18_141
*1099 FILLER_0_18_15
*1100 FILLER_0_18_153
*1101 FILLER_0_18_165
*1102 FILLER_0_18_180
*1103 FILLER_0_18_195
*1104 FILLER_0_18_209
*1105 FILLER_0_18_228
*1106 FILLER_0_18_23
*1107 FILLER_0_18_234
*1108 FILLER_0_18_276
*1109 FILLER_0_18_3
*1110 FILLER_0_18_309
*1111 FILLER_0_18_32
*1112 FILLER_0_18_334
*1113 FILLER_0_18_44
*1114 FILLER_0_18_62
*1115 FILLER_0_18_72
*1116 FILLER_0_18_85
*1117 FILLER_0_18_97
*1118 FILLER_0_19_108
*1119 FILLER_0_19_113
*1120 FILLER_0_19_121
*1121 FILLER_0_19_15
*1122 FILLER_0_19_151
*1123 FILLER_0_19_162
*1124 FILLER_0_19_169
*1125 FILLER_0_19_176
*1126 FILLER_0_19_210
*1127 FILLER_0_19_222
*1128 FILLER_0_19_225
*1129 FILLER_0_19_260
*1130 FILLER_0_19_27
*1131 FILLER_0_19_279
*1132 FILLER_0_19_290
*1133 FILLER_0_19_3
*1134 FILLER_0_19_302
*1135 FILLER_0_19_330
*1136 FILLER_0_19_334
*1137 FILLER_0_19_39
*1138 FILLER_0_19_57
*1139 FILLER_0_19_66
*1140 FILLER_0_19_78
*1141 FILLER_0_19_86
*1142 FILLER_0_1_105
*1143 FILLER_0_1_111
*1144 FILLER_0_1_113
*1145 FILLER_0_1_125
*1146 FILLER_0_1_137
*1147 FILLER_0_1_149
*1148 FILLER_0_1_15
*1149 FILLER_0_1_161
*1150 FILLER_0_1_167
*1151 FILLER_0_1_169
*1152 FILLER_0_1_181
*1153 FILLER_0_1_193
*1154 FILLER_0_1_205
*1155 FILLER_0_1_217
*1156 FILLER_0_1_223
*1157 FILLER_0_1_225
*1158 FILLER_0_1_237
*1159 FILLER_0_1_249
*1160 FILLER_0_1_261
*1161 FILLER_0_1_27
*1162 FILLER_0_1_273
*1163 FILLER_0_1_279
*1164 FILLER_0_1_281
*1165 FILLER_0_1_293
*1166 FILLER_0_1_3
*1167 FILLER_0_1_305
*1168 FILLER_0_1_317
*1169 FILLER_0_1_329
*1170 FILLER_0_1_39
*1171 FILLER_0_1_51
*1172 FILLER_0_1_55
*1173 FILLER_0_1_57
*1174 FILLER_0_1_69
*1175 FILLER_0_1_81
*1176 FILLER_0_1_93
*1177 FILLER_0_20_117
*1178 FILLER_0_20_139
*1179 FILLER_0_20_15
*1180 FILLER_0_20_164
*1181 FILLER_0_20_176
*1182 FILLER_0_20_204
*1183 FILLER_0_20_216
*1184 FILLER_0_20_222
*1185 FILLER_0_20_250
*1186 FILLER_0_20_253
*1187 FILLER_0_20_27
*1188 FILLER_0_20_29
*1189 FILLER_0_20_295
*1190 FILLER_0_20_3
*1191 FILLER_0_20_314
*1192 FILLER_0_20_331
*1193 FILLER_0_20_41
*1194 FILLER_0_21_107
*1195 FILLER_0_21_111
*1196 FILLER_0_21_113
*1197 FILLER_0_21_125
*1198 FILLER_0_21_15
*1199 FILLER_0_21_150
*1200 FILLER_0_21_169
*1201 FILLER_0_21_177
*1202 FILLER_0_21_207
*1203 FILLER_0_21_219
*1204 FILLER_0_21_223
*1205 FILLER_0_21_225
*1206 FILLER_0_21_255
*1207 FILLER_0_21_263
*1208 FILLER_0_21_27
*1209 FILLER_0_21_290
*1210 FILLER_0_21_296
*1211 FILLER_0_21_3
*1212 FILLER_0_21_334
*1213 FILLER_0_21_39
*1214 FILLER_0_21_47
*1215 FILLER_0_21_55
*1216 FILLER_0_21_57
*1217 FILLER_0_21_69
*1218 FILLER_0_21_81
*1219 FILLER_0_22_113
*1220 FILLER_0_22_125
*1221 FILLER_0_22_131
*1222 FILLER_0_22_135
*1223 FILLER_0_22_141
*1224 FILLER_0_22_15
*1225 FILLER_0_22_160
*1226 FILLER_0_22_172
*1227 FILLER_0_22_184
*1228 FILLER_0_22_215
*1229 FILLER_0_22_227
*1230 FILLER_0_22_27
*1231 FILLER_0_22_270
*1232 FILLER_0_22_281
*1233 FILLER_0_22_29
*1234 FILLER_0_22_293
*1235 FILLER_0_22_299
*1236 FILLER_0_22_3
*1237 FILLER_0_22_333
*1238 FILLER_0_22_41
*1239 FILLER_0_22_53
*1240 FILLER_0_22_62
*1241 FILLER_0_22_74
*1242 FILLER_0_22_82
*1243 FILLER_0_22_85
*1244 FILLER_0_22_89
*1245 FILLER_0_22_96
*1246 FILLER_0_23_108
*1247 FILLER_0_23_113
*1248 FILLER_0_23_125
*1249 FILLER_0_23_137
*1250 FILLER_0_23_146
*1251 FILLER_0_23_15
*1252 FILLER_0_23_154
*1253 FILLER_0_23_162
*1254 FILLER_0_23_169
*1255 FILLER_0_23_181
*1256 FILLER_0_23_221
*1257 FILLER_0_23_233
*1258 FILLER_0_23_245
*1259 FILLER_0_23_263
*1260 FILLER_0_23_27
*1261 FILLER_0_23_278
*1262 FILLER_0_23_281
*1263 FILLER_0_23_293
*1264 FILLER_0_23_3
*1265 FILLER_0_23_301
*1266 FILLER_0_23_307
*1267 FILLER_0_23_34
*1268 FILLER_0_23_46
*1269 FILLER_0_23_73
*1270 FILLER_0_23_85
*1271 FILLER_0_23_94
*1272 FILLER_0_23_99
*1273 FILLER_0_24_117
*1274 FILLER_0_24_129
*1275 FILLER_0_24_133
*1276 FILLER_0_24_146
*1277 FILLER_0_24_15
*1278 FILLER_0_24_152
*1279 FILLER_0_24_185
*1280 FILLER_0_24_197
*1281 FILLER_0_24_209
*1282 FILLER_0_24_236
*1283 FILLER_0_24_261
*1284 FILLER_0_24_267
*1285 FILLER_0_24_27
*1286 FILLER_0_24_297
*1287 FILLER_0_24_3
*1288 FILLER_0_24_309
*1289 FILLER_0_24_334
*1290 FILLER_0_24_36
*1291 FILLER_0_24_41
*1292 FILLER_0_24_53
*1293 FILLER_0_24_81
*1294 FILLER_0_24_85
*1295 FILLER_0_25_11
*1296 FILLER_0_25_121
*1297 FILLER_0_25_125
*1298 FILLER_0_25_139
*1299 FILLER_0_25_148
*1300 FILLER_0_25_172
*1301 FILLER_0_25_184
*1302 FILLER_0_25_196
*1303 FILLER_0_25_208
*1304 FILLER_0_25_214
*1305 FILLER_0_25_223
*1306 FILLER_0_25_230
*1307 FILLER_0_25_238
*1308 FILLER_0_25_257
*1309 FILLER_0_25_263
*1310 FILLER_0_25_291
*1311 FILLER_0_25_3
*1312 FILLER_0_25_326
*1313 FILLER_0_25_45
*1314 FILLER_0_25_51
*1315 FILLER_0_25_57
*1316 FILLER_0_25_75
*1317 FILLER_0_25_83
*1318 FILLER_0_26_116
*1319 FILLER_0_26_128
*1320 FILLER_0_26_141
*1321 FILLER_0_26_151
*1322 FILLER_0_26_161
*1323 FILLER_0_26_173
*1324 FILLER_0_26_179
*1325 FILLER_0_26_213
*1326 FILLER_0_26_224
*1327 FILLER_0_26_244
*1328 FILLER_0_26_253
*1329 FILLER_0_26_262
*1330 FILLER_0_26_286
*1331 FILLER_0_26_29
*1332 FILLER_0_26_3
*1333 FILLER_0_26_309
*1334 FILLER_0_26_332
*1335 FILLER_0_26_37
*1336 FILLER_0_26_49
*1337 FILLER_0_26_55
*1338 FILLER_0_26_74
*1339 FILLER_0_26_85
*1340 FILLER_0_27_104
*1341 FILLER_0_27_113
*1342 FILLER_0_27_122
*1343 FILLER_0_27_15
*1344 FILLER_0_27_161
*1345 FILLER_0_27_167
*1346 FILLER_0_27_169
*1347 FILLER_0_27_181
*1348 FILLER_0_27_210
*1349 FILLER_0_27_225
*1350 FILLER_0_27_243
*1351 FILLER_0_27_255
*1352 FILLER_0_27_267
*1353 FILLER_0_27_279
*1354 FILLER_0_27_295
*1355 FILLER_0_27_3
*1356 FILLER_0_27_301
*1357 FILLER_0_27_327
*1358 FILLER_0_27_39
*1359 FILLER_0_27_51
*1360 FILLER_0_27_55
*1361 FILLER_0_27_57
*1362 FILLER_0_27_61
*1363 FILLER_0_27_67
*1364 FILLER_0_27_79
*1365 FILLER_0_27_91
*1366 FILLER_0_27_99
*1367 FILLER_0_28_101
*1368 FILLER_0_28_112
*1369 FILLER_0_28_123
*1370 FILLER_0_28_127
*1371 FILLER_0_28_139
*1372 FILLER_0_28_141
*1373 FILLER_0_28_15
*1374 FILLER_0_28_163
*1375 FILLER_0_28_171
*1376 FILLER_0_28_189
*1377 FILLER_0_28_195
*1378 FILLER_0_28_20
*1379 FILLER_0_28_202
*1380 FILLER_0_28_214
*1381 FILLER_0_28_218
*1382 FILLER_0_28_250
*1383 FILLER_0_28_253
*1384 FILLER_0_28_261
*1385 FILLER_0_28_290
*1386 FILLER_0_28_3
*1387 FILLER_0_28_301
*1388 FILLER_0_28_307
*1389 FILLER_0_28_312
*1390 FILLER_0_28_324
*1391 FILLER_0_28_332
*1392 FILLER_0_28_49
*1393 FILLER_0_28_67
*1394 FILLER_0_28_75
*1395 FILLER_0_28_83
*1396 FILLER_0_28_85
*1397 FILLER_0_28_93
*1398 FILLER_0_29_105
*1399 FILLER_0_29_11
*1400 FILLER_0_29_110
*1401 FILLER_0_29_113
*1402 FILLER_0_29_121
*1403 FILLER_0_29_127
*1404 FILLER_0_29_135
*1405 FILLER_0_29_143
*1406 FILLER_0_29_155
*1407 FILLER_0_29_167
*1408 FILLER_0_29_169
*1409 FILLER_0_29_175
*1410 FILLER_0_29_185
*1411 FILLER_0_29_197
*1412 FILLER_0_29_201
*1413 FILLER_0_29_205
*1414 FILLER_0_29_217
*1415 FILLER_0_29_223
*1416 FILLER_0_29_225
*1417 FILLER_0_29_237
*1418 FILLER_0_29_241
*1419 FILLER_0_29_245
*1420 FILLER_0_29_252
*1421 FILLER_0_29_258
*1422 FILLER_0_29_278
*1423 FILLER_0_29_3
*1424 FILLER_0_29_327
*1425 FILLER_0_29_42
*1426 FILLER_0_29_54
*1427 FILLER_0_29_57
*1428 FILLER_0_29_81
*1429 FILLER_0_29_99
*1430 FILLER_0_2_109
*1431 FILLER_0_2_121
*1432 FILLER_0_2_133
*1433 FILLER_0_2_139
*1434 FILLER_0_2_141
*1435 FILLER_0_2_15
*1436 FILLER_0_2_153
*1437 FILLER_0_2_165
*1438 FILLER_0_2_177
*1439 FILLER_0_2_189
*1440 FILLER_0_2_195
*1441 FILLER_0_2_197
*1442 FILLER_0_2_209
*1443 FILLER_0_2_221
*1444 FILLER_0_2_233
*1445 FILLER_0_2_245
*1446 FILLER_0_2_251
*1447 FILLER_0_2_253
*1448 FILLER_0_2_265
*1449 FILLER_0_2_27
*1450 FILLER_0_2_277
*1451 FILLER_0_2_289
*1452 FILLER_0_2_29
*1453 FILLER_0_2_3
*1454 FILLER_0_2_301
*1455 FILLER_0_2_307
*1456 FILLER_0_2_309
*1457 FILLER_0_2_321
*1458 FILLER_0_2_333
*1459 FILLER_0_2_41
*1460 FILLER_0_2_53
*1461 FILLER_0_2_65
*1462 FILLER_0_2_77
*1463 FILLER_0_2_83
*1464 FILLER_0_2_85
*1465 FILLER_0_2_97
*1466 FILLER_0_30_11
*1467 FILLER_0_30_125
*1468 FILLER_0_30_133
*1469 FILLER_0_30_154
*1470 FILLER_0_30_166
*1471 FILLER_0_30_174
*1472 FILLER_0_30_185
*1473 FILLER_0_30_197
*1474 FILLER_0_30_220
*1475 FILLER_0_30_235
*1476 FILLER_0_30_247
*1477 FILLER_0_30_251
*1478 FILLER_0_30_260
*1479 FILLER_0_30_264
*1480 FILLER_0_30_280
*1481 FILLER_0_30_288
*1482 FILLER_0_30_3
*1483 FILLER_0_30_314
*1484 FILLER_0_30_331
*1485 FILLER_0_30_44
*1486 FILLER_0_30_56
*1487 FILLER_0_30_79
*1488 FILLER_0_30_83
*1489 FILLER_0_30_85
*1490 FILLER_0_30_94
*1491 FILLER_0_31_109
*1492 FILLER_0_31_118
*1493 FILLER_0_31_130
*1494 FILLER_0_31_15
*1495 FILLER_0_31_151
*1496 FILLER_0_31_163
*1497 FILLER_0_31_167
*1498 FILLER_0_31_19
*1499 FILLER_0_31_191
*1500 FILLER_0_31_199
*1501 FILLER_0_31_211
*1502 FILLER_0_31_223
*1503 FILLER_0_31_249
*1504 FILLER_0_31_259
*1505 FILLER_0_31_270
*1506 FILLER_0_31_278
*1507 FILLER_0_31_288
*1508 FILLER_0_31_296
*1509 FILLER_0_31_3
*1510 FILLER_0_31_321
*1511 FILLER_0_31_42
*1512 FILLER_0_31_54
*1513 FILLER_0_31_57
*1514 FILLER_0_31_63
*1515 FILLER_0_31_75
*1516 FILLER_0_31_87
*1517 FILLER_0_31_93
*1518 FILLER_0_31_97
*1519 FILLER_0_32_110
*1520 FILLER_0_32_122
*1521 FILLER_0_32_134
*1522 FILLER_0_32_138
*1523 FILLER_0_32_149
*1524 FILLER_0_32_15
*1525 FILLER_0_32_161
*1526 FILLER_0_32_179
*1527 FILLER_0_32_19
*1528 FILLER_0_32_195
*1529 FILLER_0_32_197
*1530 FILLER_0_32_209
*1531 FILLER_0_32_213
*1532 FILLER_0_32_230
*1533 FILLER_0_32_242
*1534 FILLER_0_32_250
*1535 FILLER_0_32_253
*1536 FILLER_0_32_26
*1537 FILLER_0_32_263
*1538 FILLER_0_32_271
*1539 FILLER_0_32_297
*1540 FILLER_0_32_3
*1541 FILLER_0_32_334
*1542 FILLER_0_32_40
*1543 FILLER_0_32_52
*1544 FILLER_0_32_60
*1545 FILLER_0_32_67
*1546 FILLER_0_32_72
*1547 FILLER_0_32_85
*1548 FILLER_0_32_93
*1549 FILLER_0_33_126
*1550 FILLER_0_33_138
*1551 FILLER_0_33_149
*1552 FILLER_0_33_15
*1553 FILLER_0_33_161
*1554 FILLER_0_33_167
*1555 FILLER_0_33_169
*1556 FILLER_0_33_197
*1557 FILLER_0_33_209
*1558 FILLER_0_33_225
*1559 FILLER_0_33_236
*1560 FILLER_0_33_248
*1561 FILLER_0_33_266
*1562 FILLER_0_33_27
*1563 FILLER_0_33_278
*1564 FILLER_0_33_284
*1565 FILLER_0_33_296
*1566 FILLER_0_33_3
*1567 FILLER_0_33_307
*1568 FILLER_0_33_312
*1569 FILLER_0_33_324
*1570 FILLER_0_33_34
*1571 FILLER_0_33_46
*1572 FILLER_0_33_54
*1573 FILLER_0_33_57
*1574 FILLER_0_33_74
*1575 FILLER_0_33_86
*1576 FILLER_0_34_107
*1577 FILLER_0_34_111
*1578 FILLER_0_34_115
*1579 FILLER_0_34_127
*1580 FILLER_0_34_139
*1581 FILLER_0_34_157
*1582 FILLER_0_34_169
*1583 FILLER_0_34_177
*1584 FILLER_0_34_189
*1585 FILLER_0_34_195
*1586 FILLER_0_34_197
*1587 FILLER_0_34_209
*1588 FILLER_0_34_235
*1589 FILLER_0_34_243
*1590 FILLER_0_34_253
*1591 FILLER_0_34_274
*1592 FILLER_0_34_282
*1593 FILLER_0_34_3
*1594 FILLER_0_34_333
*1595 FILLER_0_34_50
*1596 FILLER_0_34_58
*1597 FILLER_0_34_76
*1598 FILLER_0_34_88
*1599 FILLER_0_35_111
*1600 FILLER_0_35_122