*SPEF "ieee 1481-1999"
*DESIGN "tt_um_simplez_rcoeurjoly"
*DATE "11:11:11 Fri 11 11, 1111"
*VENDOR "OpenRCX"
*PROGRAM "Parallel Extraction"
*VERSION "1.0"
*DESIGN_FLOW "NAME_SCOPE LOCAL" "PIN_CAP NONE"
*DIVIDER /
*DELIMITER :
*BUS_DELIMITER []
*T_UNIT 1 NS
*C_UNIT 1 PF
*R_UNIT 1 OHM
*L_UNIT 1 HENRY

*NAME_MAP
*3 clk
*4 ena
*5 rst_n
*6 ui_in[0]
*7 ui_in[1]
*8 ui_in[2]
*9 ui_in[3]
*10 ui_in[4]
*11 ui_in[5]
*12 ui_in[6]
*13 ui_in[7]
*14 uio_in[0]
*15 uio_in[1]
*16 uio_in[2]
*17 uio_in[3]
*18 uio_in[4]
*19 uio_in[5]
*20 uio_in[6]
*21 uio_in[7]
*22 net5
*23 net6
*24 net7
*25 net8
*26 net9
*27 net10
*28 net11
*29 net12
*30 uio_out[0]
*31 uio_out[1]
*32 net13
*33 net14
*34 net15
*35 net16
*36 net17
*37 net18
*38 uo_out[0]
*39 uo_out[1]
*40 uo_out[2]
*41 uo_out[3]
*42 uo_out[4]
*43 uo_out[5]
*44 uo_out[6]
*45 uo_out[7]
*46 P0\.ROM\.data_out\[0\]
*47 P0\.ROM\.data_out\[10\]
*48 P0\.ROM\.data_out\[11\]
*49 P0\.ROM\.data_out\[1\]
*50 P0\.ROM\.data_out\[2\]
*51 P0\.ROM\.data_out\[3\]
*52 P0\.ROM\.data_out\[4\]
*53 P0\.ROM\.data_out\[5\]
*54 P0\.ROM\.data_out\[6\]
*55 P0\.ROM\.data_out\[7\]
*56 P0\.ROM\.data_out\[8\]
*57 P0\.ROM\.data_out\[9\]
*58 P0\.ROM\.ram\[0\]\[0\]
*59 P0\.ROM\.ram\[0\]\[10\]
*60 P0\.ROM\.ram\[0\]\[11\]
*61 P0\.ROM\.ram\[0\]\[1\]
*62 P0\.ROM\.ram\[0\]\[2\]
*63 P0\.ROM\.ram\[0\]\[3\]
*64 P0\.ROM\.ram\[0\]\[4\]
*65 P0\.ROM\.ram\[0\]\[5\]
*66 P0\.ROM\.ram\[0\]\[6\]
*67 P0\.ROM\.ram\[0\]\[7\]
*68 P0\.ROM\.ram\[0\]\[8\]
*69 P0\.ROM\.ram\[0\]\[9\]
*70 P0\.ROM\.ram\[10\]\[0\]
*71 P0\.ROM\.ram\[10\]\[10\]
*72 P0\.ROM\.ram\[10\]\[11\]
*73 P0\.ROM\.ram\[10\]\[1\]
*74 P0\.ROM\.ram\[10\]\[2\]
*75 P0\.ROM\.ram\[10\]\[3\]
*76 P0\.ROM\.ram\[10\]\[4\]
*77 P0\.ROM\.ram\[10\]\[5\]
*78 P0\.ROM\.ram\[10\]\[6\]
*79 P0\.ROM\.ram\[10\]\[7\]
*80 P0\.ROM\.ram\[10\]\[8\]
*81 P0\.ROM\.ram\[10\]\[9\]
*82 P0\.ROM\.ram\[11\]\[0\]
*83 P0\.ROM\.ram\[11\]\[10\]
*84 P0\.ROM\.ram\[11\]\[11\]
*85 P0\.ROM\.ram\[11\]\[1\]
*86 P0\.ROM\.ram\[11\]\[2\]
*87 P0\.ROM\.ram\[11\]\[3\]
*88 P0\.ROM\.ram\[11\]\[4\]
*89 P0\.ROM\.ram\[11\]\[5\]
*90 P0\.ROM\.ram\[11\]\[6\]
*91 P0\.ROM\.ram\[11\]\[7\]
*92 P0\.ROM\.ram\[11\]\[8\]
*93 P0\.ROM\.ram\[11\]\[9\]
*94 P0\.ROM\.ram\[12\]\[0\]
*95 P0\.ROM\.ram\[12\]\[10\]
*96 P0\.ROM\.ram\[12\]\[11\]
*97 P0\.ROM\.ram\[12\]\[1\]
*98 P0\.ROM\.ram\[12\]\[2\]
*99 P0\.ROM\.ram\[12\]\[3\]
*100 P0\.ROM\.ram\[12\]\[4\]
*101 P0\.ROM\.ram\[12\]\[5\]
*102 P0\.ROM\.ram\[12\]\[6\]
*103 P0\.ROM\.ram\[12\]\[7\]
*104 P0\.ROM\.ram\[12\]\[8\]
*105 P0\.ROM\.ram\[12\]\[9\]
*106 P0\.ROM\.ram\[13\]\[0\]
*107 P0\.ROM\.ram\[13\]\[10\]
*108 P0\.ROM\.ram\[13\]\[11\]
*109 P0\.ROM\.ram\[13\]\[1\]
*110 P0\.ROM\.ram\[13\]\[2\]
*111 P0\.ROM\.ram\[13\]\[3\]
*112 P0\.ROM\.ram\[13\]\[4\]
*113 P0\.ROM\.ram\[13\]\[5\]
*114 P0\.ROM\.ram\[13\]\[6\]
*115 P0\.ROM\.ram\[13\]\[7\]
*116 P0\.ROM\.ram\[13\]\[8\]
*117 P0\.ROM\.ram\[13\]\[9\]
*118 P0\.ROM\.ram\[14\]\[0\]
*119 P0\.ROM\.ram\[14\]\[10\]
*120 P0\.ROM\.ram\[14\]\[11\]
*121 P0\.ROM\.ram\[14\]\[1\]
*122 P0\.ROM\.ram\[14\]\[2\]
*123 P0\.ROM\.ram\[14\]\[3\]
*124 P0\.ROM\.ram\[14\]\[4\]
*125 P0\.ROM\.ram\[14\]\[5\]
*126 P0\.ROM\.ram\[14\]\[6\]
*127 P0\.ROM\.ram\[14\]\[7\]
*128 P0\.ROM\.ram\[14\]\[8\]
*129 P0\.ROM\.ram\[14\]\[9\]
*130 P0\.ROM\.ram\[15\]\[0\]
*131 P0\.ROM\.ram\[15\]\[10\]
*132 P0\.ROM\.ram\[15\]\[11\]
*133 P0\.ROM\.ram\[15\]\[1\]
*134 P0\.ROM\.ram\[15\]\[2\]
*135 P0\.ROM\.ram\[15\]\[3\]
*136 P0\.ROM\.ram\[15\]\[4\]
*137 P0\.ROM\.ram\[15\]\[5\]
*138 P0\.ROM\.ram\[15\]\[6\]
*139 P0\.ROM\.ram\[15\]\[7\]
*140 P0\.ROM\.ram\[15\]\[8\]
*141 P0\.ROM\.ram\[15\]\[9\]
*142 P0\.ROM\.ram\[1\]\[0\]
*143 P0\.ROM\.ram\[1\]\[10\]
*144 P0\.ROM\.ram\[1\]\[11\]
*145 P0\.ROM\.ram\[1\]\[1\]
*146 P0\.ROM\.ram\[1\]\[2\]
*147 P0\.ROM\.ram\[1\]\[3\]
*148 P0\.ROM\.ram\[1\]\[4\]
*149 P0\.ROM\.ram\[1\]\[5\]
*150 P0\.ROM\.ram\[1\]\[6\]
*151 P0\.ROM\.ram\[1\]\[7\]
*152 P0\.ROM\.ram\[1\]\[8\]
*153 P0\.ROM\.ram\[1\]\[9\]
*154 P0\.ROM\.ram\[2\]\[0\]
*155 P0\.ROM\.ram\[2\]\[10\]
*156 P0\.ROM\.ram\[2\]\[11\]
*157 P0\.ROM\.ram\[2\]\[1\]
*158 P0\.ROM\.ram\[2\]\[2\]
*159 P0\.ROM\.ram\[2\]\[3\]
*160 P0\.ROM\.ram\[2\]\[4\]
*161 P0\.ROM\.ram\[2\]\[5\]
*162 P0\.ROM\.ram\[2\]\[6\]
*163 P0\.ROM\.ram\[2\]\[7\]
*164 P0\.ROM\.ram\[2\]\[8\]
*165 P0\.ROM\.ram\[2\]\[9\]
*166 P0\.ROM\.ram\[3\]\[0\]
*167 P0\.ROM\.ram\[3\]\[10\]
*168 P0\.ROM\.ram\[3\]\[11\]
*169 P0\.ROM\.ram\[3\]\[1\]
*170 P0\.ROM\.ram\[3\]\[2\]
*171 P0\.ROM\.ram\[3\]\[3\]
*172 P0\.ROM\.ram\[3\]\[4\]
*173 P0\.ROM\.ram\[3\]\[5\]
*174 P0\.ROM\.ram\[3\]\[6\]
*175 P0\.ROM\.ram\[3\]\[7\]
*176 P0\.ROM\.ram\[3\]\[8\]
*177 P0\.ROM\.ram\[3\]\[9\]
*178 P0\.ROM\.ram\[4\]\[0\]
*179 P0\.ROM\.ram\[4\]\[10\]
*180 P0\.ROM\.ram\[4\]\[11\]
*181 P0\.ROM\.ram\[4\]\[1\]
*182 P0\.ROM\.ram\[4\]\[2\]
*183 P0\.ROM\.ram\[4\]\[3\]
*184 P0\.ROM\.ram\[4\]\[4\]
*185 P0\.ROM\.ram\[4\]\[5\]
*186 P0\.ROM\.ram\[4\]\[6\]
*187 P0\.ROM\.ram\[4\]\[7\]
*188 P0\.ROM\.ram\[4\]\[8\]
*189 P0\.ROM\.ram\[4\]\[9\]
*190 P0\.ROM\.ram\[5\]\[0\]
*191 P0\.ROM\.ram\[5\]\[10\]
*192 P0\.ROM\.ram\[5\]\[11\]
*193 P0\.ROM\.ram\[5\]\[1\]
*194 P0\.ROM\.ram\[5\]\[2\]
*195 P0\.ROM\.ram\[5\]\[3\]
*196 P0\.ROM\.ram\[5\]\[4\]
*197 P0\.ROM\.ram\[5\]\[5\]
*198 P0\.ROM\.ram\[5\]\[6\]
*199 P0\.ROM\.ram\[5\]\[7\]
*200 P0\.ROM\.ram\[5\]\[8\]
*201 P0\.ROM\.ram\[5\]\[9\]
*202 P0\.ROM\.ram\[6\]\[0\]
*203 P0\.ROM\.ram\[6\]\[10\]
*204 P0\.ROM\.ram\[6\]\[11\]
*205 P0\.ROM\.ram\[6\]\[1\]
*206 P0\.ROM\.ram\[6\]\[2\]
*207 P0\.ROM\.ram\[6\]\[3\]
*208 P0\.ROM\.ram\[6\]\[4\]
*209 P0\.ROM\.ram\[6\]\[5\]
*210 P0\.ROM\.ram\[6\]\[6\]
*211 P0\.ROM\.ram\[6\]\[7\]
*212 P0\.ROM\.ram\[6\]\[8\]
*213 P0\.ROM\.ram\[6\]\[9\]
*214 P0\.ROM\.ram\[7\]\[0\]
*215 P0\.ROM\.ram\[7\]\[10\]
*216 P0\.ROM\.ram\[7\]\[11\]
*217 P0\.ROM\.ram\[7\]\[1\]
*218 P0\.ROM\.ram\[7\]\[2\]
*219 P0\.ROM\.ram\[7\]\[3\]
*220 P0\.ROM\.ram\[7\]\[4\]
*221 P0\.ROM\.ram\[7\]\[5\]
*222 P0\.ROM\.ram\[7\]\[6\]
*223 P0\.ROM\.ram\[7\]\[7\]
*224 P0\.ROM\.ram\[7\]\[8\]
*225 P0\.ROM\.ram\[7\]\[9\]
*226 P0\.ROM\.ram\[8\]\[0\]
*227 P0\.ROM\.ram\[8\]\[10\]
*228 P0\.ROM\.ram\[8\]\[11\]
*229 P0\.ROM\.ram\[8\]\[1\]
*230 P0\.ROM\.ram\[8\]\[2\]
*231 P0\.ROM\.ram\[8\]\[3\]
*232 P0\.ROM\.ram\[8\]\[4\]
*233 P0\.ROM\.ram\[8\]\[5\]
*234 P0\.ROM\.ram\[8\]\[6\]
*235 P0\.ROM\.ram\[8\]\[7\]
*236 P0\.ROM\.ram\[8\]\[8\]
*237 P0\.ROM\.ram\[8\]\[9\]
*238 P0\.ROM\.ram\[9\]\[0\]
*239 P0\.ROM\.ram\[9\]\[10\]
*240 P0\.ROM\.ram\[9\]\[11\]
*241 P0\.ROM\.ram\[9\]\[1\]
*242 P0\.ROM\.ram\[9\]\[2\]
*243 P0\.ROM\.ram\[9\]\[3\]
*244 P0\.ROM\.ram\[9\]\[4\]
*245 P0\.ROM\.ram\[9\]\[5\]
*246 P0\.ROM\.ram\[9\]\[6\]
*247 P0\.ROM\.ram\[9\]\[7\]
*248 P0\.ROM\.ram\[9\]\[8\]
*249 P0\.ROM\.ram\[9\]\[9\]
*250 P0\.TIMER0\.divcounter\[0\]
*251 P0\.TIMER0\.divcounter\[10\]
*252 P0\.TIMER0\.divcounter\[11\]
*253 P0\.TIMER0\.divcounter\[12\]
*254 P0\.TIMER0\.divcounter\[13\]
*255 P0\.TIMER0\.divcounter\[14\]
*256 P0\.TIMER0\.divcounter\[15\]
*257 P0\.TIMER0\.divcounter\[16\]
*258 P0\.TIMER0\.divcounter\[17\]
*259 P0\.TIMER0\.divcounter\[18\]
*260 P0\.TIMER0\.divcounter\[19\]
*261 P0\.TIMER0\.divcounter\[1\]
*262 P0\.TIMER0\.divcounter\[20\]
*263 P0\.TIMER0\.divcounter\[21\]
*264 P0\.TIMER0\.divcounter\[2\]
*265 P0\.TIMER0\.divcounter\[3\]
*266 P0\.TIMER0\.divcounter\[4\]
*267 P0\.TIMER0\.divcounter\[5\]
*268 P0\.TIMER0\.divcounter\[6\]
*269 P0\.TIMER0\.divcounter\[7\]
*270 P0\.TIMER0\.divcounter\[8\]
*271 P0\.TIMER0\.divcounter\[9\]
*272 P0\.TX0\.BAUD0\.divcounter\[0\]
*273 P0\.TX0\.BAUD0\.divcounter\[1\]
*274 P0\.TX0\.BAUD0\.divcounter\[2\]
*275 P0\.TX0\.BAUD0\.divcounter\[3\]
*276 P0\.TX0\.BAUD0\.divcounter\[4\]
*277 P0\.TX0\.BAUD0\.divcounter\[5\]
*278 P0\.TX0\.BAUD0\.divcounter\[6\]
*279 P0\.TX0\.bitc\[0\]
*280 P0\.TX0\.bitc\[1\]
*281 P0\.TX0\.bitc\[2\]
*282 P0\.TX0\.bitc\[3\]
*283 P0\.TX0\.data_r\[0\]
*284 P0\.TX0\.data_r\[1\]
*285 P0\.TX0\.data_r\[2\]
*286 P0\.TX0\.data_r\[3\]
*287 P0\.TX0\.data_r\[4\]
*288 P0\.TX0\.data_r\[5\]
*289 P0\.TX0\.data_r\[6\]
*290 P0\.TX0\.data_r\[7\]
*291 P0\.TX0\.load
*292 P0\.TX0\.ready
*293 P0\.TX0\.shifter\[0\]
*294 P0\.TX0\.shifter\[1\]
*295 P0\.TX0\.shifter\[2\]
*296 P0\.TX0\.shifter\[3\]
*297 P0\.TX0\.shifter\[4\]
*298 P0\.TX0\.shifter\[5\]
*299 P0\.TX0\.shifter\[6\]
*300 P0\.TX0\.shifter\[7\]
*301 P0\.TX0\.shifter\[8\]
*302 P0\.TX0\.shifter\[9\]
*303 P0\.TX0\.state\[1\]
*304 P0\.TX0\.tx
*305 P0\.cp\[0\]
*306 P0\.cp\[1\]
*307 P0\.cp\[2\]
*308 P0\.cp\[3\]
*309 P0\.flag_z
*310 P0\.reg_a\[0\]
*311 P0\.reg_a\[10\]
*312 P0\.reg_a\[11\]
*313 P0\.reg_a\[1\]
*314 P0\.reg_a\[2\]
*315 P0\.reg_a\[3\]
*316 P0\.reg_a\[4\]
*317 P0\.reg_a\[5\]
*318 P0\.reg_a\[6\]
*319 P0\.reg_a\[7\]
*320 P0\.reg_a\[8\]
*321 P0\.reg_a\[9\]
*322 P0\.reg_stop
*323 P0\.ri\[0\]
*324 P0\.ri\[10\]
*325 P0\.ri\[11\]
*326 P0\.ri\[1\]
*327 P0\.ri\[2\]
*328 P0\.ri\[3\]
*329 P0\.ri\[8\]
*330 P0\.ri\[9\]
*331 P0\.rstn
*332 P0\.rstn_ini
*333 P0\.state\[0\]
*334 P0\.state\[1\]
*335 P0\.state\[2\]
*336 _0000_
*337 _0001_
*338 _0002_
*339 _0003_
*340 _0004_
*341 _0005_
*342 _0006_
*343 _0007_
*344 _0008_
*345 _0009_
*346 _0010_
*347 _0011_
*348 _0012_
*349 _0013_
*350 _0014_
*351 _0015_
*352 _0016_
*353 _0017_
*354 _0018_
*355 _0019_
*356 _0020_
*357 _0021_
*358 _0022_
*359 _0023_
*360 _0024_
*361 _0025_
*362 _0026_
*363 _0027_
*364 _0028_
*365 _0029_
*366 _0030_
*367 _0031_
*368 _0032_
*369 _0033_
*370 _0034_
*371 _0035_
*372 _0036_
*373 _0037_
*374 _0038_
*375 _0039_
*376 _0040_
*377 _0041_
*378 _0042_
*379 _0043_
*380 _0044_
*381 _0045_
*382 _0046_
*383 _0047_
*384 _0048_
*385 _0049_
*386 _0050_
*387 _0051_
*388 _0052_
*389 _0053_
*390 _0054_
*391 _0055_
*392 _0056_
*393 _0057_
*394 _0058_
*395 _0059_
*396 _0060_
*397 _0061_
*398 _0062_
*399 _0063_
*400 _0064_
*401 _0065_
*402 _0066_
*403 _0067_
*404 _0068_
*405 _0069_
*406 _0070_
*407 _0071_
*408 _0072_
*409 _0073_
*410 _0074_
*411 _0075_
*412 _0076_
*413 _0077_
*414 _0078_
*415 _0079_
*416 _0080_
*417 _0081_
*418 _0082_
*419 _0083_
*420 _0084_
*421 _0085_
*422 _0086_
*423 _0087_
*424 _0088_
*425 _0089_
*426 _0090_
*427 _0091_
*428 _0092_
*429 _0093_
*430 _0094_
*431 _0095_
*432 _0096_
*433 _0097_
*434 _0098_
*435 _0099_
*436 _0100_
*437 _0101_
*438 _0102_
*439 _0103_
*440 _0104_
*441 _0105_
*442 _0106_
*443 _0107_
*444 _0108_
*445 _0109_
*446 _0110_
*447 _0111_
*448 _0112_
*449 _0113_
*450 _0114_
*451 _0115_
*452 _0116_
*453 _0117_
*454 _0118_
*455 _0119_
*456 _0120_
*457 _0121_
*458 _0122_
*459 _0123_
*460 _0124_
*461 _0125_
*462 _0126_
*463 _0127_
*464 _0128_
*465 _0129_
*466 _0130_
*467 _0131_
*468 _0132_
*469 _0133_
*470 _0134_
*471 _0135_
*472 _0136_
*473 _0137_
*474 _0138_
*475 _0139_
*476 _0140_
*477 _0141_
*478 _0142_
*479 _0143_
*480 _0144_
*481 _0145_
*482 _0146_
*483 _0147_
*484 _0148_
*485 _0149_
*486 _0150_
*487 _0151_
*488 _0152_
*489 _0153_
*490 _0154_
*491 _0155_
*492 _0156_
*493 _0157_
*494 _0158_
*495 _0159_
*496 _0160_
*497 _0161_
*498 _0162_
*499 _0163_
*500 _0164_
*501 _0165_
*502 _0166_
*503 _0167_
*504 _0168_
*505 _0169_
*506 _0170_
*507 _0171_
*508 _0172_
*509 _0173_
*510 _0174_
*511 _0175_
*512 _0176_
*513 _0177_
*514 _0178_
*515 _0179_
*516 _0180_
*517 _0181_
*518 _0182_
*519 _0183_
*520 _0184_
*521 _0185_
*522 _0186_
*523 _0187_
*524 _0188_
*525 _0189_
*526 _0190_
*527 _0191_
*528 _0192_
*529 _0193_
*530 _0194_
*531 _0195_
*532 _0196_
*533 _0197_
*534 _0198_
*535 _0199_
*536 _0200_
*537 _0201_
*538 _0202_
*539 _0203_
*540 _0204_
*541 _0205_
*542 _0206_
*543 _0207_
*544 _0208_
*545 _0209_
*546 _0210_
*547 _0211_
*548 _0212_
*549 _0213_
*550 _0214_
*551 _0215_
*552 _0216_
*553 _0217_
*554 _0218_
*555 _0219_
*556 _0220_
*557 _0221_
*558 _0222_
*559 _0223_
*560 _0224_
*561 _0225_
*562 _0226_
*563 _0227_
*564 _0228_
*565 _0229_
*566 _0230_
*567 _0231_
*568 _0232_
*569 _0233_
*570 _0234_
*571 _0235_
*572 _0236_
*573 _0237_
*574 _0238_
*575 _0239_
*576 _0240_
*577 _0241_
*578 _0242_
*579 _0243_
*580 _0244_
*581 _0245_
*582 _0246_
*583 _0247_
*584 _0248_
*585 _0249_
*586 _0250_
*587 _0251_
*588 _0252_
*589 _0253_
*590 _0254_
*591 _0255_
*592 _0256_
*593 _0257_
*594 _0258_
*595 _0259_
*596 _0260_
*597 _0261_
*598 _0262_
*599 _0263_
*600 _0264_
*601 _0265_
*602 _0266_
*603 _0267_
*604 _0268_
*605 _0269_
*606 _0270_
*607 _0271_
*608 _0272_
*609 _0273_
*610 _0274_
*611 _0275_
*612 _0276_
*613 _0277_
*614 _0278_
*615 _0279_
*616 _0280_
*617 _0281_
*618 _0282_
*619 _0283_
*620 _0284_
*621 _0285_
*622 _0286_
*623 _0287_
*624 _0288_
*625 _0289_
*626 _0290_
*627 _0291_
*628 _0292_
*629 _0293_
*630 _0294_
*631 _0295_
*632 _0296_
*633 _0297_
*634 _0298_
*635 _0299_
*636 _0300_
*637 _0301_
*638 _0302_
*639 _0303_
*640 _0304_
*641 _0305_
*642 _0306_
*643 _0307_
*644 _0308_
*645 _0309_
*646 _0310_
*647 _0311_
*648 _0312_
*649 _0313_
*650 _0314_
*651 _0315_
*652 _0316_
*653 _0317_
*654 _0318_
*655 _0319_
*656 _0320_
*657 _0321_
*658 _0322_
*659 _0323_
*660 _0324_
*661 _0325_
*662 _0326_
*663 _0327_
*664 _0328_
*665 _0329_
*666 _0330_
*667 _0331_
*668 _0332_
*669 _0333_
*670 _0334_
*671 _0335_
*672 _0336_
*673 _0337_
*674 _0338_
*675 _0339_
*676 _0340_
*677 _0341_
*678 _0342_
*679 _0343_
*680 _0344_
*681 _0345_
*682 _0346_
*683 _0347_
*684 _0348_
*685 _0349_
*686 _0350_
*687 _0351_
*688 _0352_
*689 _0353_
*690 _0354_
*691 _0355_
*692 _0356_
*693 _0357_
*694 _0358_
*695 _0359_
*696 _0360_
*697 _0361_
*698 _0362_
*699 _0363_
*700 _0364_
*701 _0365_
*702 _0366_
*703 _0367_
*704 _0368_
*705 _0369_
*706 _0370_
*707 _0371_
*708 _0372_
*709 _0373_
*710 _0374_
*711 _0375_
*712 _0376_
*713 _0377_
*714 _0378_
*715 _0379_
*716 _0380_
*717 _0381_
*718 _0382_
*719 _0383_
*720 _0384_
*721 _0385_
*722 _0386_
*723 _0387_
*724 _0388_
*725 _0389_
*726 _0390_
*727 _0391_
*728 _0392_
*729 _0393_
*730 _0394_
*731 _0395_
*732 _0396_
*733 _0397_
*734 _0398_
*735 _0399_
*736 _0400_
*737 _0401_
*738 _0402_
*739 _0403_
*740 _0404_
*741 _0405_
*742 _0406_
*743 _0407_
*744 _0408_
*745 _0409_
*746 _0410_
*747 _0411_
*748 _0412_
*749 _0413_
*750 _0414_
*751 _0415_
*752 _0416_
*753 _0417_
*754 _0418_
*755 _0419_
*756 _0420_
*757 _0421_
*758 _0422_
*759 _0423_
*760 _0424_
*761 _0425_
*762 _0426_
*763 _0427_
*764 _0428_
*765 _0429_
*766 _0430_
*767 _0431_
*768 _0432_
*769 _0433_
*770 _0434_
*771 _0435_
*772 _0436_
*773 _0437_
*774 _0438_
*775 _0439_
*776 _0440_
*777 _0441_
*778 _0442_
*779 _0443_
*780 _0444_
*781 _0445_
*782 _0446_
*783 _0447_
*784 _0448_
*785 _0449_
*786 _0450_
*787 _0451_
*788 _0452_
*789 _0453_
*790 _0454_
*791 _0455_
*792 _0456_
*793 _0457_
*794 _0458_
*795 _0459_
*796 _0460_
*797 _0461_
*798 _0462_
*799 _0463_
*800 _0464_
*801 _0465_
*802 _0466_
*803 _0467_
*804 _0468_
*805 _0469_
*806 _0470_
*807 _0471_
*808 _0472_
*809 _0473_
*810 _0474_
*811 _0475_
*812 _0476_
*813 _0477_
*814 _0478_
*815 _0479_
*816 _0480_
*817 _0481_
*818 _0482_
*819 _0483_
*820 _0484_
*821 _0485_
*822 _0486_
*823 _0487_
*824 _0488_
*825 _0489_
*826 _0490_
*827 _0491_
*828 _0492_
*829 _0493_
*830 _0494_
*831 _0495_
*832 _0496_
*833 _0497_
*834 _0498_
*835 _0499_
*836 _0500_
*837 _0501_
*838 _0502_
*839 _0503_
*840 _0504_
*841 _0505_
*842 _0506_
*843 _0507_
*844 _0508_
*845 _0509_
*846 _0510_
*847 _0511_
*848 _0512_
*849 _0513_
*850 _0514_
*851 _0515_
*852 _0516_
*853 _0517_
*854 _0518_
*855 _0519_
*856 _0520_
*857 _0521_
*858 _0522_
*859 _0523_
*860 _0524_
*861 _0525_
*862 _0526_
*863 _0527_
*864 _0528_
*865 _0529_
*866 _0530_
*867 _0531_
*868 _0532_
*869 _0533_
*870 _0534_
*871 _0535_
*872 _0536_
*873 _0537_
*874 _0538_
*875 _0539_
*876 _0540_
*877 _0541_
*878 _0542_
*879 _0543_
*880 _0544_
*881 _0545_
*882 _0546_
*883 _0547_
*884 _0548_
*885 _0549_
*886 _0550_
*887 _0551_
*888 _0552_
*889 _0553_
*890 _0554_
*891 _0555_
*892 _0556_
*893 _0557_
*894 _0558_
*895 _0559_
*896 _0560_
*897 _0561_
*898 _0562_
*899 _0563_
*900 _0564_
*901 _0565_
*902 _0566_
*903 _0567_
*904 _0568_
*905 _0569_
*906 _0570_
*907 _0571_
*908 _0572_
*909 _0573_
*910 _0574_
*911 _0575_
*912 _0576_
*913 _0577_
*914 _0578_
*915 _0579_
*916 _0580_
*917 _0581_
*918 _0582_
*919 _0583_
*920 _0584_
*921 _0585_
*922 _0586_
*923 _0587_
*924 _0588_
*925 _0589_
*926 _0590_
*927 _0591_
*928 _0592_
*929 _0593_
*930 _0594_
*931 _0595_
*932 _0596_
*933 _0597_
*934 _0598_
*935 _0599_
*936 _0600_
*937 _0601_
*938 _0602_
*939 _0603_
*940 _0604_
*941 _0605_
*942 _0606_
*943 _0607_
*944 _0608_
*945 _0609_
*946 _0610_
*947 _0611_
*948 _0612_
*949 _0613_
*950 _0614_
*951 _0615_
*952 _0616_
*953 _0617_
*954 _0618_
*955 _0619_
*956 _0620_
*957 _0621_
*958 _0622_
*959 _0623_
*960 _0624_
*961 _0625_
*962 _0626_
*963 _0627_
*964 _0628_
*965 _0629_
*966 _0630_
*967 _0631_
*968 _0632_
*969 _0633_
*970 _0634_
*971 _0635_
*972 _0636_
*973 _0637_
*974 _0638_
*975 _0639_
*976 _0640_
*977 _0641_
*978 _0642_
*979 _0643_
*980 _0644_
*981 _0645_
*982 _0646_
*983 _0647_
*984 _0648_
*985 _0649_
*986 _0650_
*987 _0651_
*988 _0652_
*989 _0653_
*990 _0654_
*991 _0655_
*992 _0656_
*993 _0657_
*994 _0658_
*995 _0659_
*996 _0660_
*997 _0661_
*998 _0662_
*999 _0663_
*1000 _0664_
*1001 _0665_
*1002 _0666_
*1003 _0667_
*1004 _0668_
*1005 _0669_
*1006 _0670_
*1007 _0671_
*1008 _0672_
*1009 _0673_
*1010 _0674_
*1011 _0675_
*1012 _0676_
*1013 _0677_
*1014 _0678_
*1015 _0679_
*1016 _0680_
*1017 _0681_
*1018 _0682_
*1019 _0683_
*1020 _0684_
*1021 _0685_
*1022 _0686_
*1023 _0687_
*1024 _0688_
*1025 _0689_
*1026 _0690_
*1027 _0691_
*1028 _0692_
*1029 _0693_
*1030 _0694_
*1031 _0695_
*1032 _0696_
*1033 _0697_
*1034 _0698_
*1035 _0699_
*1036 _0700_
*1037 _0701_
*1038 _0702_
*1039 _0703_
*1040 _0704_
*1041 _0705_
*1042 _0706_
*1043 _0707_
*1044 _0708_
*1045 _0709_
*1046 _0710_
*1047 _0711_
*1048 _0712_
*1049 _0713_
*1050 _0714_
*1051 _0715_
*1052 _0716_
*1053 _0717_
*1054 _0718_
*1055 _0719_
*1056 _0720_
*1057 _0721_
*1058 _0722_
*1059 _0723_
*1060 _0724_
*1061 _0725_
*1062 _0726_
*1063 _0727_
*1064 _0728_
*1065 _0729_
*1066 _0730_
*1067 _0731_
*1068 _0732_
*1069 _0733_
*1070 _0734_
*1071 _0735_
*1072 _0736_
*1073 _0737_
*1074 _0738_
*1075 _0739_
*1076 _0740_
*1077 _0741_
*1078 _0742_
*1079 _0743_
*1080 _0744_
*1081 _0745_
*1082 _0746_
*1083 _0747_
*1084 _0748_
*1085 _0749_
*1086 _0750_
*1087 _0751_
*1088 _0752_
*1089 _0753_
*1090 _0754_
*1091 _0755_
*1092 _0756_
*1093 _0757_
*1094 _0758_
*1095 _0759_
*1096 _0760_
*1097 _0761_
*1098 _0762_
*1099 _0763_
*1100 _0764_
*1101 _0765_
*1102 _0766_
*1103 _0767_
*1104 _0768_
*1105 _0769_
*1106 _0770_
*1107 _0771_
*1108 _0772_
*1109 _0773_
*1110 _0774_
*1111 _0775_
*1112 _0776_
*1113 _0777_
*1114 _0778_
*1115 _0779_
*1116 _0780_
*1117 _0781_
*1118 _0782_
*1119 _0783_
*1120 _0784_
*1121 _0785_
*1122 _0786_
*1123 _0787_
*1124 _0788_
*1125 _0789_
*1126 _0790_
*1127 _0791_
*1128 _0792_
*1129 _0793_
*1130 _0794_
*1131 _0795_
*1132 _0796_
*1133 _0797_
*1134 _0798_
*1135 _0799_
*1136 _0800_
*1137 _0801_
*1138 _0802_
*1139 _0803_
*1140 _0804_
*1141 _0805_
*1142 _0806_
*1143 _0807_
*1144 _0808_
*1145 _0809_
*1146 _0810_
*1147 _0811_
*1148 _0812_
*1149 _0813_
*1150 _0814_
*1151 _0815_
*1152 _0816_
*1153 _0817_
*1154 _0818_
*1155 _0819_
*1156 _0820_
*1157 _0821_
*1158 _0822_
*1159 _0823_
*1160 _0824_
*1161 _0825_
*1162 _0826_
*1163 _0827_
*1164 _0828_
*1165 _0829_
*1166 _0830_
*1167 _0831_
*1168 _0832_
*1169 _0833_
*1170 _0834_
*1171 _0835_
*1172 _0836_
*1173 _0837_
*1174 _0838_
*1175 _0839_
*1176 _0840_
*1177 _0841_
*1178 _0842_
*1179 _0843_
*1180 _0844_
*1181 _0845_
*1182 _0846_
*1183 _0847_
*1184 _0848_
*1185 _0849_
*1186 _0850_
*1187 _0851_
*1188 _0852_
*1189 _0853_
*1190 _0854_
*1191 _0855_
*1192 _0856_
*1193 _0857_
*1194 _0858_
*1195 _0859_
*1196 _0860_
*1197 _0861_
*1198 _0862_
*1199 _0863_
*1200 _0864_
*1201 _0865_
*1202 _0866_
*1203 _0867_
*1204 _0868_
*1205 _0869_
*1206 _0870_
*1207 _0871_
*1208 _0872_
*1209 _0873_
*1210 _0874_
*1211 _0875_
*1212 _0876_
*1213 _0877_
*1214 _0878_
*1215 _0879_
*1216 _0880_
*1217 _0881_
*1218 _0882_
*1219 _0883_
*1220 _0884_
*1221 _0885_
*1222 _0886_
*1223 _0887_
*1224 _0888_
*1225 _0889_
*1226 _0890_
*1227 _0891_
*1228 _0892_
*1229 _0893_
*1230 _0894_
*1231 _0895_
*1232 _0896_
*1233 _0897_
*1234 _0898_
*1235 _0899_
*1236 _0900_
*1237 _0901_
*1238 _0902_
*1239 _0903_
*1240 _0904_
*1241 _0905_
*1242 _0906_
*1243 _0907_
*1244 _0908_
*1245 _0909_
*1246 _0910_
*1247 _0911_
*1248 _0912_
*1249 _0913_
*1250 _0914_
*1251 _0915_
*1252 _0916_
*1253 _0917_
*1254 _0918_
*1255 _0919_
*1256 _0920_
*1257 _0921_
*1258 _0922_
*1259 _0923_
*1260 _0924_
*1261 _0925_
*1262 _0926_
*1263 _0927_
*1264 _0928_
*1265 _0929_
*1266 _0930_
*1267 _0931_
*1268 _0932_
*1269 _0933_
*1270 _0934_
*1271 _0935_
*1272 _0936_
*1273 _0937_
*1274 _0938_
*1275 _0939_
*1276 _0940_
*1277 _0941_
*1278 _0942_
*1279 _0943_
*1280 _0944_
*1281 _0945_
*1282 _0946_
*1283 _0947_
*1284 _0948_
*1285 _0949_
*1286 _0950_
*1287 _0951_
*1288 _0952_
*1289 _0953_
*1290 _0954_
*1291 _0955_
*1292 _0956_
*1293 _0957_
*1294 _0958_
*1295 _0959_
*1296 _0960_
*1297 _0961_
*1298 _0962_
*1299 _0963_
*1300 _0964_
*1301 _0965_
*1302 _0966_
*1303 _0967_
*1304 _0968_
*1305 _0969_
*1306 _0970_
*1307 _0971_
*1308 _0972_
*1309 _0973_
*1310 _0974_
*1311 _0975_
*1312 _0976_
*1313 _0977_
*1314 _0978_
*1315 _0979_
*1316 _0980_
*1317 _0981_
*1318 _0982_
*1319 _0983_
*1320 _0984_
*1321 _0985_
*1322 _0986_
*1323 _0987_
*1324 _0988_
*1325 _0989_
*1326 _0990_
*1327 _0991_
*1328 _0992_
*1329 _0993_
*1330 _0994_
*1331 _0995_
*1332 _0996_
*1333 _0997_
*1334 _0998_
*1335 _0999_
*1336 _1000_
*1337 _1001_
*1338 _1002_
*1339 _1003_
*1340 _1004_
*1341 _1005_
*1342 _1006_
*1343 _1007_
*1344 _1008_
*1345 _1009_
*1346 _1010_
*1347 _1011_
*1348 _1012_
*1349 _1013_
*1350 _1014_
*1351 _1015_
*1352 _1016_
*1353 _1017_
*1354 _1018_
*1355 _1019_
*1356 _1020_
*1357 _1021_
*1358 _1022_
*1359 _1023_
*1360 _1024_
*1361 _1025_
*1362 _1026_
*1363 _1027_
*1364 _1028_
*1365 _1029_
*1366 _1030_
*1367 _1031_
*1368 _1032_
*1369 _1033_
*1370 _1034_
*1371 _1035_
*1372 _1036_
*1373 _1037_
*1374 _1038_
*1375 _1039_
*1376 _1040_
*1377 _1041_
*1378 _1042_
*1379 _1043_
*1380 _1044_
*1381 _1045_
*1382 _1046_
*1383 _1047_
*1384 _1048_
*1385 _1049_
*1386 _1050_
*1387 _1051_
*1388 _1052_
*1389 _1053_
*1390 _1054_
*1391 clknet_0_clk
*1392 clknet_1_0__leaf_clk
*1393 clknet_1_1__leaf_clk
*1394 clknet_leaf_0_clk
*1395 clknet_leaf_10_clk
*1396 clknet_leaf_11_clk
*1397 clknet_leaf_12_clk
*1398 clknet_leaf_13_clk
*1399 clknet_leaf_1_clk
*1400 clknet_leaf_2_clk
*1401 clknet_leaf_3_clk
*1402 clknet_leaf_4_clk
*1403 clknet_leaf_5_clk
*1404 clknet_leaf_6_clk
*1405 clknet_leaf_7_clk
*1406 clknet_leaf_8_clk
*1407 clknet_leaf_9_clk
*1408 net1
*1409 net19
*1410 net2
*1411 net20
*1412 net21
*1413 net22
*1414 net23
*1415 net24
*1416 net25
*1417 net26
*1418 net27
*1419 net28
*1420 net29
*1421 net3
*1422 net30
*1423 net31
*1424 net32
*1425 net33
*1426 net34
*1427 net35
*1428 net36
*1429 net37
*1430 net38
*1431 net39
*1432 net4
*1433 net40
*1434 net41
*1435 net42
*1436 net43
*1437 net44
*1438 net45
*1439 net46
*1440 net47
*1441 net48
*1442 net49
*1443 net50
*1444 net51
*1445 net52
*1446 net53
*1447 net54
*1448 net55
*1449 net56
*1450 net57
*1451 net58
*1452 net59
*1453 net60
*1454 net61
*1455 net62
*1456 net63
*1457 net64
*1458 net65
*1459 net66
*1460 net67
*1461 net68
*1462 net69
*1463 net70
*1464 net71
*1465 net72
*1466 net73
*1467 net74
*1468 net75
*1469 ANTENNA_1
*1470 ANTENNA_10
*1471 ANTENNA_11
*1472 ANTENNA_12
*1473 ANTENNA_13
*1474 ANTENNA_14
*1475 ANTENNA_15
*1476 ANTENNA_16
*1477 ANTENNA_17
*1478 ANTENNA_18
*1479 ANTENNA_19
*1480 ANTENNA_2
*1481 ANTENNA_20
*1482 ANTENNA_3
*1483 ANTENNA_4
*1484 ANTENNA_5
*1485 ANTENNA_6
*1486 ANTENNA_7
*1487 ANTENNA_8
*1488 ANTENNA_9
*1489 FILLER_0_0_111
*1490 FILLER_0_0_136
*1491 FILLER_0_0_15
*1492 FILLER_0_0_150
*1493 FILLER_0_0_172
*1494 FILLER_0_0_180
*1495 FILLER_0_0_189
*1496 FILLER_0_0_194
*1497 FILLER_0_0_197
*1498 FILLER_0_0_207
*1499 FILLER_0_0_240
*1500 FILLER_0_0_248
*1501 FILLER_0_0_259
*1502 FILLER_0_0_27
*1503 FILLER_0_0_271
*1504 FILLER_0_0_279
*1505 FILLER_0_0_281
*1506 FILLER_0_0_29
*1507 FILLER_0_0_293
*1508 FILLER_0_0_3
*1509 FILLER_0_0_301
*1510 FILLER_0_0_41
*1511 FILLER_0_0_53
*1512 FILLER_0_0_57
*1513 FILLER_0_0_62
*1514 FILLER_0_0_66
*1515 FILLER_0_0_85
*1516 FILLER_0_10_141
*1517 FILLER_0_10_194
*1518 FILLER_0_10_197
*1519 FILLER_0_10_26
*1520 FILLER_0_10_316
*1521 FILLER_0_10_32
*1522 FILLER_0_10_326
*1523 FILLER_0_10_334
*1524 FILLER_0_10_83
*1525 FILLER_0_11_113
*1526 FILLER_0_11_126
*1527 FILLER_0_11_143
*1528 FILLER_0_11_216
*1529 FILLER_0_11_262
*1530 FILLER_0_11_269
*1531 FILLER_0_11_28
*1532 FILLER_0_11_294
*1533 FILLER_0_11_83
*1534 FILLER_0_12_102
*1535 FILLER_0_12_111
*1536 FILLER_0_12_13
*1537 FILLER_0_12_136
*1538 FILLER_0_12_165
*1539 FILLER_0_12_194
*1540 FILLER_0_12_197
*1541 FILLER_0_12_214
*1542 FILLER_0_12_268
*1543 FILLER_0_12_3
*1544 FILLER_0_12_316
*1545 FILLER_0_12_333
*1546 FILLER_0_12_36
*1547 FILLER_0_12_47
*1548 FILLER_0_12_79
*1549 FILLER_0_12_88
*1550 FILLER_0_13_113
*1551 FILLER_0_13_146
*1552 FILLER_0_13_164
*1553 FILLER_0_13_169
*1554 FILLER_0_13_214
*1555 FILLER_0_13_228
*1556 FILLER_0_13_254
*1557 FILLER_0_13_3
*1558 FILLER_0_13_45
*1559 FILLER_0_13_84
*1560 FILLER_0_14_109
*1561 FILLER_0_14_130
*1562 FILLER_0_14_148
*1563 FILLER_0_14_171
*1564 FILLER_0_14_175
*1565 FILLER_0_14_195
*1566 FILLER_0_14_204
*1567 FILLER_0_14_219
*1568 FILLER_0_14_233
*1569 FILLER_0_14_251
*1570 FILLER_0_14_256
*1571 FILLER_0_14_29
*1572 FILLER_0_14_3
*1573 FILLER_0_14_334
*1574 FILLER_0_14_83
*1575 FILLER_0_14_85
*1576 FILLER_0_14_96
*1577 FILLER_0_15_111
*1578 FILLER_0_15_195
*1579 FILLER_0_15_202
*1580 FILLER_0_15_219
*1581 FILLER_0_15_24
*1582 FILLER_0_15_297
*1583 FILLER_0_15_334
*1584 FILLER_0_15_34
*1585 FILLER_0_15_6
*1586 FILLER_0_15_60
*1587 FILLER_0_15_77
*1588 FILLER_0_16_119
*1589 FILLER_0_16_139
*1590 FILLER_0_16_147
*1591 FILLER_0_16_157
*1592 FILLER_0_16_165
*1593 FILLER_0_16_186
*1594 FILLER_0_16_241
*1595 FILLER_0_16_250
*1596 FILLER_0_16_270
*1597 FILLER_0_16_289
*1598 FILLER_0_16_334
*1599 FILLER_0_16_36
*1600 FILLER_0_16_56
*1601 FILLER_0_16_60
*1602 FILLER_0_16_80
*1603 FILLER_0_16_93
*1604 FILLER_0_17_113
*1605 FILLER_0_17_142
*1606 FILLER_0_17_159
*1607 FILLER_0_17_222
*1608 FILLER_0_17_278
*1609 FILLER_0_17_317
*1610 FILLER_0_18_104
*1611 FILLER_0_18_122
*1612 FILLER_0_18_149
*1613 FILLER_0_18_238
*1614 FILLER_0_18_318
*1615 FILLER_0_18_38
*1616 FILLER_0_18_67
*1617 FILLER_0_19_11
*1618 FILLER_0_19_130
*1619 FILLER_0_19_167
*1620 FILLER_0_19_172
*1621 FILLER_0_19_214
*1622 FILLER_0_19_223
*1623 FILLER_0_19_279
*1624 FILLER_0_19_31
*1625 FILLER_0_19_51
*1626 FILLER_0_1_113
*1627 FILLER_0_1_15
*1628 FILLER_0_1_158
*1629 FILLER_0_1_192
*1630 FILLER_0_1_209
*1631 FILLER_0_1_223
*1632 FILLER_0_1_225
*1633 FILLER_0_1_248
*1634 FILLER_0_1_265
*1635 FILLER_0_1_27
*1636 FILLER_0_1_277
*1637 FILLER_0_1_287
*1638 FILLER_0_1_293
*1639 FILLER_0_1_3
*1640 FILLER_0_1_305
*1641 FILLER_0_1_311
*1642 FILLER_0_1_318
*1643 FILLER_0_1_39
*1644 FILLER_0_1_51
*1645 FILLER_0_1_57
*1646 FILLER_0_1_80
*1647 FILLER_0_20_102
*1648 FILLER_0_20_112
*1649 FILLER_0_20_138
*1650 FILLER_0_20_150
*1651 FILLER_0_20_191
*1652 FILLER_0_20_200
*1653 FILLER_0_20_250
*1654 FILLER_0_20_29
*1655 FILLER_0_20_318
*1656 FILLER_0_20_63
*1657 FILLER_0_21_113
*1658 FILLER_0_21_156
*1659 FILLER_0_21_167
*1660 FILLER_0_21_185
*1661 FILLER_0_21_199
*1662 FILLER_0_21_217
*1663 FILLER_0_21_234
*1664 FILLER_0_21_278
*1665 FILLER_0_21_28
*1666 FILLER_0_21_66
*1667 FILLER_0_21_94
*1668 FILLER_0_22_101
*1669 FILLER_0_22_126
*1670 FILLER_0_22_195
*1671 FILLER_0_22_216
*1672 FILLER_0_22_256
*1673 FILLER_0_22_307
*1674 FILLER_0_22_315
*1675 FILLER_0_22_36
*1676 FILLER_0_22_46
*1677 FILLER_0_22_79
*1678 FILLER_0_23_110
*1679 FILLER_0_23_113
*1680 FILLER_0_23_131
*1681 FILLER_0_23_135
*1682 FILLER_0_23_147
*1683 FILLER_0_23_161
*1684 FILLER_0_23_177
*1685 FILLER_0_23_181
*1686 FILLER_0_23_241
*1687 FILLER_0_23_252
*1688 FILLER_0_23_273
*1689 FILLER_0_23_3
*1690 FILLER_0_23_30
*1691 FILLER_0_23_313
*1692 FILLER_0_23_334
*1693 FILLER_0_23_48
*1694 FILLER_0_23_93
*1695 FILLER_0_24_114
*1696 FILLER_0_24_139
*1697 FILLER_0_24_145
*1698 FILLER_0_24_197
*1699 FILLER_0_24_232
*1700 FILLER_0_24_239
*1701 FILLER_0_24_281
*1702 FILLER_0_24_334
*1703 FILLER_0_24_66
*1704 FILLER_0_24_94
*1705 FILLER_0_25_104
*1706 FILLER_0_25_12
*1707 FILLER_0_25_16
*1708 FILLER_0_25_162
*1709 FILLER_0_25_169
*1710 FILLER_0_25_181
*1711 FILLER_0_25_244
*1712 FILLER_0_25_281
*1713 FILLER_0_25_303
*1714 FILLER_0_25_334
*1715 FILLER_0_25_36
*1716 FILLER_0_25_42
*1717 FILLER_0_26_128
*1718 FILLER_0_26_148
*1719 FILLER_0_26_164
*1720 FILLER_0_26_191
*1721 FILLER_0_26_250
*1722 FILLER_0_26_26
*1723 FILLER_0_26_270
*1724 FILLER_0_26_3
*1725 FILLER_0_26_317
*1726 FILLER_0_26_63
*1727 FILLER_0_26_85
*1728 FILLER_0_27_113
*1729 FILLER_0_27_130
*1730 FILLER_0_27_173
*1731 FILLER_0_27_205
*1732 FILLER_0_27_222
*1733 FILLER_0_27_243
*1734 FILLER_0_27_288
*1735 FILLER_0_27_317
*1736 FILLER_0_27_334
*1737 FILLER_0_27_44
*1738 FILLER_0_27_55
*1739 FILLER_0_27_57
*1740 FILLER_0_27_78
*1741 FILLER_0_28_110
*1742 FILLER_0_28_116
*1743 FILLER_0_28_134
*1744 FILLER_0_28_176
*1745 FILLER_0_28_251
*1746 FILLER_0_28_253
*1747 FILLER_0_28_288
*1748 FILLER_0_28_3
*1749 FILLER_0_28_306
*1750 FILLER_0_28_53
*1751 FILLER_0_28_75
*1752 FILLER_0_28_83
*1753 FILLER_0_29_113
*1754 FILLER_0_29_156
*1755 FILLER_0_29_201
*1756 FILLER_0_29_217
*1757 FILLER_0_29_23
*1758 FILLER_0_29_243
*1759 FILLER_0_29_281
*1760 FILLER_0_29_3
*1761 FILLER_0_29_303
*1762 FILLER_0_29_73
*1763 FILLER_0_29_91
*1764 FILLER_0_2_115
*1765 FILLER_0_2_149
*1766 FILLER_0_2_15
*1767 FILLER_0_2_169
*1768 FILLER_0_2_195
*1769 FILLER_0_2_27
*1770 FILLER_0_2_271
*1771 FILLER_0_2_29
*1772 FILLER_0_2_3
*1773 FILLER_0_2_306
*1774 FILLER_0_2_321
*1775 FILLER_0_2_334
*1776 FILLER_0_2_37
*1777 FILLER_0_2_40
*1778 FILLER_0_2_44
*1779 FILLER_0_2_57
*1780 FILLER_0_2_94
*1781 FILLER_0_30_152
*1782 FILLER_0_30_195
*1783 FILLER_0_30_210
*1784 FILLER_0_30_251
*1785 FILLER_0_30_272
*1786 FILLER_0_30_50
*1787 FILLER_0_30_85
*1788 FILLER_0_30_95
*1789 FILLER_0_31_111
*1790 FILLER_0_31_129
*1791 FILLER_0_31_145
*1792 FILLER_0_31_160
*1793 FILLER_0_31_278
*1794 FILLER_0_31_281
*1795 FILLER_0_31_3
*1796 FILLER_0_31_57
*1797 FILLER_0_31_79
*1798 FILLER_0_32_108