*SPEF "ieee 1481-1999"
*DESIGN "tt_um_simplez_rcoeurjoly"
*DATE "11:11:11 Fri 11 11, 1111"
*VENDOR "OpenRCX"
*PROGRAM "Parallel Extraction"
*VERSION "1.0"
*DESIGN_FLOW "NAME_SCOPE LOCAL" "PIN_CAP NONE"
*DIVIDER /
*DELIMITER :
*BUS_DELIMITER []
*T_UNIT 1 NS
*C_UNIT 1 PF
*R_UNIT 1 OHM
*L_UNIT 1 HENRY

*NAME_MAP
*3 clk
*4 ena
*5 rst_n
*6 ui_in[0]
*7 ui_in[1]
*8 ui_in[2]
*9 ui_in[3]
*10 ui_in[4]
*11 ui_in[5]
*12 ui_in[6]
*13 ui_in[7]
*14 uio_in[0]
*15 uio_in[1]
*16 uio_in[2]
*17 uio_in[3]
*18 uio_in[4]
*19 uio_in[5]
*20 uio_in[6]
*21 uio_in[7]
*22 net8
*23 net9
*24 net10
*25 net11
*26 net12
*27 net13
*28 net14
*29 net15
*30 uio_out[0]
*31 uio_out[1]
*32 net16
*33 net17
*34 net18
*35 net19
*36 net20
*37 net21
*38 uo_out[0]
*39 uo_out[1]
*40 uo_out[2]
*41 uo_out[3]
*42 uo_out[4]
*43 uo_out[5]
*44 uo_out[6]
*45 uo_out[7]
*46 P0\.ROM\.data_out\[0\]
*47 P0\.ROM\.data_out\[10\]
*48 P0\.ROM\.data_out\[11\]
*49 P0\.ROM\.data_out\[1\]
*50 P0\.ROM\.data_out\[2\]
*51 P0\.ROM\.data_out\[3\]
*52 P0\.ROM\.data_out\[4\]
*53 P0\.ROM\.data_out\[5\]
*54 P0\.ROM\.data_out\[6\]
*55 P0\.ROM\.data_out\[7\]
*56 P0\.ROM\.data_out\[8\]
*57 P0\.ROM\.data_out\[9\]
*58 P0\.ROM\.ram\[0\]\[0\]
*59 P0\.ROM\.ram\[0\]\[10\]
*60 P0\.ROM\.ram\[0\]\[11\]
*61 P0\.ROM\.ram\[0\]\[1\]
*62 P0\.ROM\.ram\[0\]\[2\]
*63 P0\.ROM\.ram\[0\]\[3\]
*64 P0\.ROM\.ram\[0\]\[4\]
*65 P0\.ROM\.ram\[0\]\[5\]
*66 P0\.ROM\.ram\[0\]\[6\]
*67 P0\.ROM\.ram\[0\]\[7\]
*68 P0\.ROM\.ram\[0\]\[8\]
*69 P0\.ROM\.ram\[0\]\[9\]
*70 P0\.ROM\.ram\[1\]\[0\]
*71 P0\.ROM\.ram\[1\]\[10\]
*72 P0\.ROM\.ram\[1\]\[11\]
*73 P0\.ROM\.ram\[1\]\[1\]
*74 P0\.ROM\.ram\[1\]\[2\]
*75 P0\.ROM\.ram\[1\]\[3\]
*76 P0\.ROM\.ram\[1\]\[4\]
*77 P0\.ROM\.ram\[1\]\[5\]
*78 P0\.ROM\.ram\[1\]\[6\]
*79 P0\.ROM\.ram\[1\]\[7\]
*80 P0\.ROM\.ram\[1\]\[8\]
*81 P0\.ROM\.ram\[1\]\[9\]
*82 P0\.ROM\.ram\[2\]\[0\]
*83 P0\.ROM\.ram\[2\]\[10\]
*84 P0\.ROM\.ram\[2\]\[11\]
*85 P0\.ROM\.ram\[2\]\[1\]
*86 P0\.ROM\.ram\[2\]\[2\]
*87 P0\.ROM\.ram\[2\]\[3\]
*88 P0\.ROM\.ram\[2\]\[4\]
*89 P0\.ROM\.ram\[2\]\[5\]
*90 P0\.ROM\.ram\[2\]\[6\]
*91 P0\.ROM\.ram\[2\]\[7\]
*92 P0\.ROM\.ram\[2\]\[8\]
*93 P0\.ROM\.ram\[2\]\[9\]
*94 P0\.ROM\.ram\[3\]\[0\]
*95 P0\.ROM\.ram\[3\]\[10\]
*96 P0\.ROM\.ram\[3\]\[11\]
*97 P0\.ROM\.ram\[3\]\[1\]
*98 P0\.ROM\.ram\[3\]\[2\]
*99 P0\.ROM\.ram\[3\]\[3\]
*100 P0\.ROM\.ram\[3\]\[4\]
*101 P0\.ROM\.ram\[3\]\[5\]
*102 P0\.ROM\.ram\[3\]\[6\]
*103 P0\.ROM\.ram\[3\]\[7\]
*104 P0\.ROM\.ram\[3\]\[8\]
*105 P0\.ROM\.ram\[3\]\[9\]
*106 P0\.RX0\.baudgen0\.divcounter\[0\]
*107 P0\.RX0\.baudgen0\.divcounter\[1\]
*108 P0\.RX0\.baudgen0\.divcounter\[2\]
*109 P0\.RX0\.baudgen0\.divcounter\[3\]
*110 P0\.RX0\.baudgen0\.divcounter\[4\]
*111 P0\.RX0\.baudgen0\.divcounter\[5\]
*112 P0\.RX0\.baudgen0\.divcounter\[6\]
*113 P0\.RX0\.bitc\[0\]
*114 P0\.RX0\.bitc\[1\]
*115 P0\.RX0\.bitc\[2\]
*116 P0\.RX0\.bitc\[3\]
*117 P0\.RX0\.data\[0\]
*118 P0\.RX0\.data\[1\]
*119 P0\.RX0\.data\[2\]
*120 P0\.RX0\.data\[3\]
*121 P0\.RX0\.data\[4\]
*122 P0\.RX0\.data\[5\]
*123 P0\.RX0\.data\[6\]
*124 P0\.RX0\.data\[7\]
*125 P0\.RX0\.raw_data\[1\]
*126 P0\.RX0\.raw_data\[2\]
*127 P0\.RX0\.raw_data\[3\]
*128 P0\.RX0\.raw_data\[4\]
*129 P0\.RX0\.raw_data\[5\]
*130 P0\.RX0\.raw_data\[6\]
*131 P0\.RX0\.raw_data\[7\]
*132 P0\.RX0\.raw_data\[8\]
*133 P0\.RX0\.raw_data\[9\]
*134 P0\.RX0\.rcv
*135 P0\.RX0\.rx_r
*136 P0\.RX0\.state\[0\]
*137 P0\.RX0\.state\[1\]
*138 P0\.RX0\.state\[2\]
*139 P0\.TIMER0\.divcounter\[0\]
*140 P0\.TIMER0\.divcounter\[10\]
*141 P0\.TIMER0\.divcounter\[11\]
*142 P0\.TIMER0\.divcounter\[12\]
*143 P0\.TIMER0\.divcounter\[13\]
*144 P0\.TIMER0\.divcounter\[14\]
*145 P0\.TIMER0\.divcounter\[15\]
*146 P0\.TIMER0\.divcounter\[16\]
*147 P0\.TIMER0\.divcounter\[17\]
*148 P0\.TIMER0\.divcounter\[18\]
*149 P0\.TIMER0\.divcounter\[19\]
*150 P0\.TIMER0\.divcounter\[1\]
*151 P0\.TIMER0\.divcounter\[20\]
*152 P0\.TIMER0\.divcounter\[21\]
*153 P0\.TIMER0\.divcounter\[2\]
*154 P0\.TIMER0\.divcounter\[3\]
*155 P0\.TIMER0\.divcounter\[4\]
*156 P0\.TIMER0\.divcounter\[5\]
*157 P0\.TIMER0\.divcounter\[6\]
*158 P0\.TIMER0\.divcounter\[7\]
*159 P0\.TIMER0\.divcounter\[8\]
*160 P0\.TIMER0\.divcounter\[9\]
*161 P0\.TX0\.BAUD0\.divcounter\[0\]
*162 P0\.TX0\.BAUD0\.divcounter\[1\]
*163 P0\.TX0\.BAUD0\.divcounter\[2\]
*164 P0\.TX0\.BAUD0\.divcounter\[3\]
*165 P0\.TX0\.BAUD0\.divcounter\[4\]
*166 P0\.TX0\.BAUD0\.divcounter\[5\]
*167 P0\.TX0\.BAUD0\.divcounter\[6\]
*168 P0\.TX0\.bitc\[0\]
*169 P0\.TX0\.bitc\[1\]
*170 P0\.TX0\.bitc\[2\]
*171 P0\.TX0\.bitc\[3\]
*172 P0\.TX0\.data_r\[0\]
*173 P0\.TX0\.data_r\[1\]
*174 P0\.TX0\.data_r\[2\]
*175 P0\.TX0\.data_r\[3\]
*176 P0\.TX0\.data_r\[4\]
*177 P0\.TX0\.data_r\[5\]
*178 P0\.TX0\.data_r\[6\]
*179 P0\.TX0\.data_r\[7\]
*180 P0\.TX0\.load
*181 P0\.TX0\.ready
*182 P0\.TX0\.shifter\[0\]
*183 P0\.TX0\.shifter\[1\]
*184 P0\.TX0\.shifter\[2\]
*185 P0\.TX0\.shifter\[3\]
*186 P0\.TX0\.shifter\[4\]
*187 P0\.TX0\.shifter\[5\]
*188 P0\.TX0\.shifter\[6\]
*189 P0\.TX0\.shifter\[7\]
*190 P0\.TX0\.shifter\[8\]
*191 P0\.TX0\.shifter\[9\]
*192 P0\.TX0\.state\[1\]
*193 P0\.TX0\.tx
*194 P0\.cp\[0\]
*195 P0\.cp\[1\]
*196 P0\.flag_z
*197 P0\.pant_status\[0\]
*198 P0\.rcv_flag
*199 P0\.reg_a\[0\]
*200 P0\.reg_a\[10\]
*201 P0\.reg_a\[11\]
*202 P0\.reg_a\[1\]
*203 P0\.reg_a\[2\]
*204 P0\.reg_a\[3\]
*205 P0\.reg_a\[4\]
*206 P0\.reg_a\[5\]
*207 P0\.reg_a\[6\]
*208 P0\.reg_a\[7\]
*209 P0\.reg_a\[8\]
*210 P0\.reg_a\[9\]
*211 P0\.reg_stop
*212 P0\.ri\[0\]
*213 P0\.ri\[10\]
*214 P0\.ri\[11\]
*215 P0\.ri\[1\]
*216 P0\.ri\[2\]
*217 P0\.ri\[3\]
*218 P0\.ri\[4\]
*219 P0\.ri\[5\]
*220 P0\.ri\[6\]
*221 P0\.ri\[7\]
*222 P0\.ri\[8\]
*223 P0\.ri\[9\]
*224 P0\.rstn
*225 P0\.rstn_ini
*226 P0\.state\[0\]
*227 P0\.state\[1\]
*228 P0\.state\[2\]
*229 P0\.tecl_data\[0\]
*230 P0\.tecl_data\[1\]
*231 P0\.tecl_data\[2\]
*232 P0\.tecl_data\[3\]
*233 P0\.tecl_data\[4\]
*234 P0\.tecl_data\[5\]
*235 P0\.tecl_data\[6\]
*236 P0\.tecl_data\[7\]
*237 P0\.tecl_status\[0\]
*238 _0000_
*239 _0001_
*240 _0002_
*241 _0003_
*242 _0004_
*243 _0005_
*244 _0006_
*245 _0007_
*246 _0008_
*247 _0009_
*248 _0010_
*249 _0011_
*250 _0012_
*251 _0013_
*252 _0014_
*253 _0015_
*254 _0016_
*255 _0017_
*256 _0018_
*257 _0019_
*258 _0020_
*259 _0021_
*260 _0022_
*261 _0023_
*262 _0024_
*263 _0025_
*264 _0026_
*265 _0027_
*266 _0028_
*267 _0029_
*268 _0030_
*269 _0031_
*270 _0032_
*271 _0033_
*272 _0034_
*273 _0035_
*274 _0036_
*275 _0037_
*276 _0038_
*277 _0039_
*278 _0040_
*279 _0041_
*280 _0042_
*281 _0043_
*282 _0044_
*283 _0045_
*284 _0046_
*285 _0047_
*286 _0048_
*287 _0049_
*288 _0050_
*289 _0051_
*290 _0052_
*291 _0053_
*292 _0054_
*293 _0055_
*294 _0056_
*295 _0057_
*296 _0058_
*297 _0059_
*298 _0060_
*299 _0061_
*300 _0062_
*301 _0063_
*302 _0064_
*303 _0065_
*304 _0066_
*305 _0067_
*306 _0068_
*307 _0069_
*308 _0070_
*309 _0071_
*310 _0072_
*311 _0073_
*312 _0074_
*313 _0075_
*314 _0076_
*315 _0077_
*316 _0078_
*317 _0079_
*318 _0080_
*319 _0081_
*320 _0082_
*321 _0083_
*322 _0084_
*323 _0085_
*324 _0086_
*325 _0087_
*326 _0088_
*327 _0089_
*328 _0090_
*329 _0091_
*330 _0092_
*331 _0093_
*332 _0094_
*333 _0095_
*334 _0096_
*335 _0097_
*336 _0098_
*337 _0099_
*338 _0100_
*339 _0101_
*340 _0102_
*341 _0103_
*342 _0104_
*343 _0105_
*344 _0106_
*345 _0107_
*346 _0108_
*347 _0109_
*348 _0110_
*349 _0111_
*350 _0112_
*351 _0113_
*352 _0114_
*353 _0115_
*354 _0116_
*355 _0117_
*356 _0118_
*357 _0119_
*358 _0120_
*359 _0121_
*360 _0122_
*361 _0123_
*362 _0124_
*363 _0125_
*364 _0126_
*365 _0127_
*366 _0128_
*367 _0129_
*368 _0130_
*369 _0131_
*370 _0132_
*371 _0133_
*372 _0134_
*373 _0135_
*374 _0136_
*375 _0137_
*376 _0138_
*377 _0139_
*378 _0140_
*379 _0141_
*380 _0142_
*381 _0143_
*382 _0144_
*383 _0145_
*384 _0146_
*385 _0147_
*386 _0148_
*387 _0149_
*388 _0150_
*389 _0151_
*390 _0152_
*391 _0153_
*392 _0154_
*393 _0155_
*394 _0156_
*395 _0157_
*396 _0158_
*397 _0159_
*398 _0160_
*399 _0161_
*400 _0162_
*401 _0163_
*402 _0164_
*403 _0165_
*404 _0166_
*405 _0167_
*406 _0168_
*407 _0169_
*408 _0170_
*409 _0171_
*410 _0172_
*411 _0173_
*412 _0174_
*413 _0175_
*414 _0176_
*415 _0177_
*416 _0178_
*417 _0179_
*418 _0180_
*419 _0181_
*420 _0182_
*421 _0183_
*422 _0184_
*423 _0185_
*424 _0186_
*425 _0187_
*426 _0188_
*427 _0189_
*428 _0190_
*429 _0191_
*430 _0192_
*431 _0193_
*432 _0194_
*433 _0195_
*434 _0196_
*435 _0197_
*436 _0198_
*437 _0199_
*438 _0200_
*439 _0201_
*440 _0202_
*441 _0203_
*442 _0204_
*443 _0205_
*444 _0206_
*445 _0207_
*446 _0208_
*447 _0209_
*448 _0210_
*449 _0211_
*450 _0212_
*451 _0213_
*452 _0214_
*453 _0215_
*454 _0216_
*455 _0217_
*456 _0218_
*457 _0219_
*458 _0220_
*459 _0221_
*460 _0222_
*461 _0223_
*462 _0224_
*463 _0225_
*464 _0226_
*465 _0227_
*466 _0228_
*467 _0229_
*468 _0230_
*469 _0231_
*470 _0232_
*471 _0233_
*472 _0234_
*473 _0235_
*474 _0236_
*475 _0237_
*476 _0238_
*477 _0239_
*478 _0240_
*479 _0241_
*480 _0242_
*481 _0243_
*482 _0244_
*483 _0245_
*484 _0246_
*485 _0247_
*486 _0248_
*487 _0249_
*488 _0250_
*489 _0251_
*490 _0252_
*491 _0253_
*492 _0254_
*493 _0255_
*494 _0256_
*495 _0257_
*496 _0258_
*497 _0259_
*498 _0260_
*499 _0261_
*500 _0262_
*501 _0263_
*502 _0264_
*503 _0265_
*504 _0266_
*505 _0267_
*506 _0268_
*507 _0269_
*508 _0270_
*509 _0271_
*510 _0272_
*511 _0273_
*512 _0274_
*513 _0275_
*514 _0276_
*515 _0277_
*516 _0278_
*517 _0279_
*518 _0280_
*519 _0281_
*520 _0282_
*521 _0283_
*522 _0284_
*523 _0285_
*524 _0286_
*525 _0287_
*526 _0288_
*527 _0289_
*528 _0290_
*529 _0291_
*530 _0292_
*531 _0293_
*532 _0294_
*533 _0295_
*534 _0296_
*535 _0297_
*536 _0298_
*537 _0299_
*538 _0300_
*539 _0301_
*540 _0302_
*541 _0303_
*542 _0304_
*543 _0305_
*544 _0306_
*545 _0307_
*546 _0308_
*547 _0309_
*548 _0310_
*549 _0311_
*550 _0312_
*551 _0313_
*552 _0314_
*553 _0315_
*554 _0316_
*555 _0317_
*556 _0318_
*557 _0319_
*558 _0320_
*559 _0321_
*560 _0322_
*561 _0323_
*562 _0324_
*563 _0325_
*564 _0326_
*565 _0327_
*566 _0328_
*567 _0329_
*568 _0330_
*569 _0331_
*570 _0332_
*571 _0333_
*572 _0334_
*573 _0335_
*574 _0336_
*575 _0337_
*576 _0338_
*577 _0339_
*578 _0340_
*579 _0341_
*580 _0342_
*581 _0343_
*582 _0344_
*583 _0345_
*584 _0346_
*585 _0347_
*586 _0348_
*587 _0349_
*588 _0350_
*589 _0351_
*590 _0352_
*591 _0353_
*592 _0354_
*593 _0355_
*594 _0356_
*595 _0357_
*596 _0358_
*597 _0359_
*598 _0360_
*599 _0361_
*600 _0362_
*601 _0363_
*602 _0364_
*603 _0365_
*604 _0366_
*605 _0367_
*606 _0368_
*607 _0369_
*608 _0370_
*609 _0371_
*610 _0372_
*611 _0373_
*612 _0374_
*613 _0375_
*614 _0376_
*615 _0377_
*616 _0378_
*617 _0379_
*618 _0380_
*619 _0381_
*620 _0382_
*621 _0383_
*622 _0384_
*623 _0385_
*624 _0386_
*625 _0387_
*626 _0388_
*627 _0389_
*628 _0390_
*629 _0391_
*630 _0392_
*631 _0393_
*632 _0394_
*633 _0395_
*634 _0396_
*635 _0397_
*636 _0398_
*637 _0399_
*638 _0400_
*639 _0401_
*640 _0402_
*641 _0403_
*642 _0404_
*643 _0405_
*644 _0406_
*645 _0407_
*646 _0408_
*647 _0409_
*648 _0410_
*649 _0411_
*650 _0412_
*651 _0413_
*652 _0414_
*653 _0415_
*654 _0416_
*655 _0417_
*656 _0418_
*657 _0419_
*658 _0420_
*659 _0421_
*660 _0422_
*661 _0423_
*662 _0424_
*663 _0425_
*664 _0426_
*665 _0427_
*666 _0428_
*667 _0429_
*668 _0430_
*669 _0431_
*670 _0432_
*671 _0433_
*672 _0434_
*673 _0435_
*674 _0436_
*675 _0437_
*676 _0438_
*677 _0439_
*678 _0440_
*679 _0441_
*680 _0442_
*681 _0443_
*682 _0444_
*683 _0445_
*684 _0446_
*685 _0447_
*686 _0448_
*687 _0449_
*688 _0450_
*689 _0451_
*690 _0452_
*691 _0453_
*692 _0454_
*693 _0455_
*694 _0456_
*695 _0457_
*696 _0458_
*697 _0459_
*698 _0460_
*699 _0461_
*700 _0462_
*701 _0463_
*702 _0464_
*703 _0465_
*704 _0466_
*705 _0467_
*706 _0468_
*707 _0469_
*708 _0470_
*709 _0471_
*710 _0472_
*711 _0473_
*712 _0474_
*713 _0475_
*714 _0476_
*715 _0477_
*716 _0478_
*717 _0479_
*718 _0480_
*719 _0481_
*720 _0482_
*721 _0483_
*722 _0484_
*723 _0485_
*724 _0486_
*725 _0487_
*726 _0488_
*727 _0489_
*728 _0490_
*729 _0491_
*730 _0492_
*731 _0493_
*732 _0494_
*733 _0495_
*734 _0496_
*735 _0497_
*736 _0498_
*737 _0499_
*738 _0500_
*739 _0501_
*740 _0502_
*741 _0503_
*742 _0504_
*743 _0505_
*744 _0506_
*745 _0507_
*746 _0508_
*747 _0509_
*748 _0510_
*749 _0511_
*750 _0512_
*751 _0513_
*752 _0514_
*753 _0515_
*754 _0516_
*755 _0517_
*756 _0518_
*757 _0519_
*758 _0520_
*759 _0521_
*760 _0522_
*761 _0523_
*762 _0524_
*763 _0525_
*764 _0526_
*765 _0527_
*766 _0528_
*767 _0529_
*768 _0530_
*769 _0531_
*770 _0532_
*771 _0533_
*772 _0534_
*773 _0535_
*774 _0536_
*775 _0537_
*776 _0538_
*777 _0539_
*778 _0540_
*779 _0541_
*780 _0542_
*781 _0543_
*782 _0544_
*783 _0545_
*784 _0546_
*785 _0547_
*786 _0548_
*787 _0549_
*788 _0550_
*789 _0551_
*790 _0552_
*791 _0553_
*792 _0554_
*793 _0555_
*794 _0556_
*795 _0557_
*796 _0558_
*797 _0559_
*798 _0560_
*799 _0561_
*800 _0562_
*801 _0563_
*802 _0564_
*803 _0565_
*804 _0566_
*805 _0567_
*806 _0568_
*807 _0569_
*808 _0570_
*809 _0571_
*810 _0572_
*811 _0573_
*812 _0574_
*813 _0575_
*814 _0576_
*815 _0577_
*816 _0578_
*817 _0579_
*818 _0580_
*819 _0581_
*820 _0582_
*821 _0583_
*822 _0584_
*823 _0585_
*824 _0586_
*825 _0587_
*826 _0588_
*827 _0589_
*828 _0590_
*829 _0591_
*830 _0592_
*831 _0593_
*832 _0594_
*833 _0595_
*834 _0596_
*835 _0597_
*836 _0598_
*837 _0599_
*838 _0600_
*839 _0601_
*840 _0602_
*841 _0603_
*842 _0604_
*843 _0605_
*844 _0606_
*845 _0607_
*846 _0608_
*847 _0609_
*848 _0610_
*849 _0611_
*850 _0612_
*851 _0613_
*852 _0614_
*853 _0615_
*854 _0616_
*855 _0617_
*856 _0618_
*857 _0619_
*858 _0620_
*859 _0621_
*860 _0622_
*861 _0623_
*862 _0624_
*863 _0625_
*864 _0626_
*865 _0627_
*866 _0628_
*867 _0629_
*868 _0630_
*869 _0631_
*870 _0632_
*871 _0633_
*872 _0634_
*873 _0635_
*874 _0636_
*875 _0637_
*876 _0638_
*877 _0639_
*878 _0640_
*879 _0641_
*880 _0642_
*881 _0643_
*882 _0644_
*883 _0645_
*884 _0646_
*885 _0647_
*886 _0648_
*887 _0649_
*888 _0650_
*889 _0651_
*890 _0652_
*891 _0653_
*892 _0654_
*893 _0655_
*894 _0656_
*895 _0657_
*896 _0658_
*897 _0659_
*898 _0660_
*899 _0661_
*900 _0662_
*901 _0663_
*902 _0664_
*903 _0665_
*904 _0666_
*905 _0667_
*906 _0668_
*907 _0669_
*908 _0670_
*909 _0671_
*910 _0672_
*911 _0673_
*912 _0674_
*913 _0675_
*914 _0676_
*915 _0677_
*916 _0678_
*917 _0679_
*918 _0680_
*919 _0681_
*920 _0682_
*921 _0683_
*922 _0684_
*923 _0685_
*924 _0686_
*925 _0687_
*926 _0688_
*927 _0689_
*928 _0690_
*929 _0691_
*930 _0692_
*931 _0693_
*932 _0694_
*933 _0695_
*934 _0696_
*935 _0697_
*936 _0698_
*937 _0699_
*938 _0700_
*939 _0701_
*940 _0702_
*941 _0703_
*942 _0704_
*943 _0705_
*944 _0706_
*945 _0707_
*946 _0708_
*947 _0709_
*948 _0710_
*949 _0711_
*950 _0712_
*951 _0713_
*952 _0714_
*953 _0715_
*954 _0716_
*955 _0717_
*956 _0718_
*957 _0719_
*958 _0720_
*959 _0721_
*960 _0722_
*961 _0723_
*962 _0724_
*963 _0725_
*964 _0726_
*965 _0727_
*966 _0728_
*967 _0729_
*968 _0730_
*969 _0731_
*970 _0732_
*971 _0733_
*972 _0734_
*973 _0735_
*974 _0736_
*975 _0737_
*976 _0738_
*977 _0739_
*978 _0740_
*979 _0741_
*980 _0742_
*981 _0743_
*982 _0744_
*983 _0745_
*984 _0746_
*985 _0747_
*986 _0748_
*987 _0749_
*988 _0750_
*989 _0751_
*990 _0752_
*991 _0753_
*992 _0754_
*993 _0755_
*994 _0756_
*995 _0757_
*996 _0758_
*997 _0759_
*998 _0760_
*999 _0761_
*1000 _0762_
*1001 _0763_
*1002 _0764_
*1003 _0765_
*1004 _0766_
*1005 _0767_
*1006 _0768_
*1007 _0769_
*1008 _0770_
*1009 _0771_
*1010 _0772_
*1011 _0773_
*1012 _0774_
*1013 clknet_0_clk
*1014 clknet_4_0_0_clk
*1015 clknet_4_10_0_clk
*1016 clknet_4_11_0_clk
*1017 clknet_4_12_0_clk
*1018 clknet_4_13_0_clk
*1019 clknet_4_14_0_clk
*1020 clknet_4_15_0_clk
*1021 clknet_4_1_0_clk
*1022 clknet_4_2_0_clk
*1023 clknet_4_3_0_clk
*1024 clknet_4_4_0_clk
*1025 clknet_4_5_0_clk
*1026 clknet_4_6_0_clk
*1027 clknet_4_7_0_clk
*1028 clknet_4_8_0_clk
*1029 clknet_4_9_0_clk
*1030 net1
*1031 net100
*1032 net101
*1033 net102
*1034 net103
*1035 net104
*1036 net105
*1037 net106
*1038 net107
*1039 net108
*1040 net109
*1041 net110
*1042 net111
*1043 net112
*1044 net113
*1045 net114
*1046 net115
*1047 net116
*1048 net117
*1049 net118
*1050 net119
*1051 net120
*1052 net121
*1053 net122
*1054 net123
*1055 net124
*1056 net125
*1057 net126
*1058 net127
*1059 net128
*1060 net129
*1061 net130
*1062 net131
*1063 net132
*1064 net133
*1065 net134
*1066 net135
*1067 net136
*1068 net137
*1069 net138
*1070 net139
*1071 net140
*1072 net141
*1073 net142
*1074 net143
*1075 net144
*1076 net145
*1077 net146
*1078 net147
*1079 net148
*1080 net149
*1081 net150
*1082 net151
*1083 net152
*1084 net153
*1085 net154
*1086 net155
*1087 net156
*1088 net157
*1089 net158
*1090 net159
*1091 net160
*1092 net161
*1093 net162
*1094 net163
*1095 net2
*1096 net22
*1097 net23
*1098 net24
*1099 net25
*1100 net26
*1101 net27
*1102 net28
*1103 net29
*1104 net3
*1105 net30
*1106 net31
*1107 net32
*1108 net33
*1109 net34
*1110 net35
*1111 net36
*1112 net37
*1113 net38
*1114 net39
*1115 net4
*1116 net40
*1117 net41
*1118 net42
*1119 net43
*1120 net44
*1121 net45
*1122 net46
*1123 net47
*1124 net48
*1125 net49
*1126 net5
*1127 net50
*1128 net51
*1129 net52
*1130 net53
*1131 net54
*1132 net55
*1133 net56
*1134 net57
*1135 net58
*1136 net59
*1137 net6
*1138 net60
*1139 net61
*1140 net62
*1141 net63
*1142 net64
*1143 net65
*1144 net66
*1145 net67
*1146 net68
*1147 net69
*1148 net7
*1149 net70
*1150 net71
*1151 net72
*1152 net73
*1153 net74
*1154 net75
*1155 net76
*1156 net77
*1157 net78
*1158 net79
*1159 net80
*1160 net81
*1161 net82
*1162 net83
*1163 net84
*1164 net85
*1165 net86
*1166 net87
*1167 net88
*1168 net89
*1169 net90
*1170 net91
*1171 net92
*1172 net93
*1173 net94
*1174 net95
*1175 net96
*1176 net97
*1177 net98
*1178 net99
*1179 ANTENNA_1
*1180 ANTENNA_2
*1181 ANTENNA_3
*1182 ANTENNA_4
*1183 ANTENNA_5
*1184 ANTENNA_6
*1185 ANTENNA_7
*1186 ANTENNA_8
*1187 ANTENNA_9
*1188 FILLER_0_0_117
*1189 FILLER_0_0_123
*1190 FILLER_0_0_141
*1191 FILLER_0_0_15
*1192 FILLER_0_0_174
*1193 FILLER_0_0_186
*1194 FILLER_0_0_197
*1195 FILLER_0_0_205
*1196 FILLER_0_0_216
*1197 FILLER_0_0_225
*1198 FILLER_0_0_240
*1199 FILLER_0_0_246
*1200 FILLER_0_0_253
*1201 FILLER_0_0_265
*1202 FILLER_0_0_27
*1203 FILLER_0_0_277
*1204 FILLER_0_0_281
*1205 FILLER_0_0_29
*1206 FILLER_0_0_293
*1207 FILLER_0_0_3
*1208 FILLER_0_0_305
*1209 FILLER_0_0_309
*1210 FILLER_0_0_321
*1211 FILLER_0_0_333
*1212 FILLER_0_0_41
*1213 FILLER_0_0_53
*1214 FILLER_0_0_57
*1215 FILLER_0_0_61
*1216 FILLER_0_0_78
*1217 FILLER_0_0_85
*1218 FILLER_0_0_90
*1219 FILLER_0_10_104
*1220 FILLER_0_10_122
*1221 FILLER_0_10_138
*1222 FILLER_0_10_154
*1223 FILLER_0_10_166
*1224 FILLER_0_10_178
*1225 FILLER_0_10_197
*1226 FILLER_0_10_21
*1227 FILLER_0_10_212
*1228 FILLER_0_10_230
*1229 FILLER_0_10_253
*1230 FILLER_0_10_257
*1231 FILLER_0_10_27
*1232 FILLER_0_10_274
*1233 FILLER_0_10_3
*1234 FILLER_0_10_330
*1235 FILLER_0_10_334
*1236 FILLER_0_10_38
*1237 FILLER_0_10_43
*1238 FILLER_0_10_59
*1239 FILLER_0_10_70
*1240 FILLER_0_10_82
*1241 FILLER_0_10_94
*1242 FILLER_0_11_11
*1243 FILLER_0_11_119
*1244 FILLER_0_11_136
*1245 FILLER_0_11_158
*1246 FILLER_0_11_166
*1247 FILLER_0_11_169
*1248 FILLER_0_11_182
*1249 FILLER_0_11_190
*1250 FILLER_0_11_208
*1251 FILLER_0_11_218
*1252 FILLER_0_11_225
*1253 FILLER_0_11_231
*1254 FILLER_0_11_237
*1255 FILLER_0_11_24
*1256 FILLER_0_11_241
*1257 FILLER_0_11_252
*1258 FILLER_0_11_277
*1259 FILLER_0_11_292
*1260 FILLER_0_11_299
*1261 FILLER_0_11_3
*1262 FILLER_0_11_317
*1263 FILLER_0_11_36
*1264 FILLER_0_11_42
*1265 FILLER_0_11_46
*1266 FILLER_0_11_7
*1267 FILLER_0_11_73
*1268 FILLER_0_11_82
*1269 FILLER_0_11_90
*1270 FILLER_0_12_14
*1271 FILLER_0_12_141
*1272 FILLER_0_12_157
*1273 FILLER_0_12_18
*1274 FILLER_0_12_185
*1275 FILLER_0_12_192
*1276 FILLER_0_12_197
*1277 FILLER_0_12_209
*1278 FILLER_0_12_224
*1279 FILLER_0_12_232
*1280 FILLER_0_12_250
*1281 FILLER_0_12_269
*1282 FILLER_0_12_281
*1283 FILLER_0_12_3
*1284 FILLER_0_12_321
*1285 FILLER_0_12_334
*1286 FILLER_0_12_48
*1287 FILLER_0_12_82
*1288 FILLER_0_13_113
*1289 FILLER_0_13_150
*1290 FILLER_0_13_163
*1291 FILLER_0_13_167
*1292 FILLER_0_13_169
*1293 FILLER_0_13_175
*1294 FILLER_0_13_19
*1295 FILLER_0_13_191
*1296 FILLER_0_13_207
*1297 FILLER_0_13_215
*1298 FILLER_0_13_230
*1299 FILLER_0_13_254
*1300 FILLER_0_13_279
*1301 FILLER_0_13_297
*1302 FILLER_0_13_30
*1303 FILLER_0_13_312
*1304 FILLER_0_13_322
*1305 FILLER_0_13_334
*1306 FILLER_0_13_39
*1307 FILLER_0_13_51
*1308 FILLER_0_13_55
*1309 FILLER_0_13_73
*1310 FILLER_0_13_91
*1311 FILLER_0_14_104
*1312 FILLER_0_14_122
*1313 FILLER_0_14_139
*1314 FILLER_0_14_146
*1315 FILLER_0_14_152
*1316 FILLER_0_14_156
*1317 FILLER_0_14_165
*1318 FILLER_0_14_177
*1319 FILLER_0_14_185
*1320 FILLER_0_14_190
*1321 FILLER_0_14_197
*1322 FILLER_0_14_213
*1323 FILLER_0_14_221
*1324 FILLER_0_14_225
*1325 FILLER_0_14_235
*1326 FILLER_0_14_24
*1327 FILLER_0_14_253
*1328 FILLER_0_14_276
*1329 FILLER_0_14_29
*1330 FILLER_0_14_290
*1331 FILLER_0_14_3
*1332 FILLER_0_14_300
*1333 FILLER_0_14_334
*1334 FILLER_0_14_48
*1335 FILLER_0_14_66
*1336 FILLER_0_15_106
*1337 FILLER_0_15_129
*1338 FILLER_0_15_146
*1339 FILLER_0_15_167
*1340 FILLER_0_15_172
*1341 FILLER_0_15_197
*1342 FILLER_0_15_205
*1343 FILLER_0_15_221
*1344 FILLER_0_15_225
*1345 FILLER_0_15_236
*1346 FILLER_0_15_248
*1347 FILLER_0_15_254
*1348 FILLER_0_15_276
*1349 FILLER_0_15_281
*1350 FILLER_0_15_298
*1351 FILLER_0_15_3
*1352 FILLER_0_15_307
*1353 FILLER_0_15_317
*1354 FILLER_0_15_334
*1355 FILLER_0_15_35
*1356 FILLER_0_15_55
*1357 FILLER_0_15_75
*1358 FILLER_0_15_89
*1359 FILLER_0_16_110
*1360 FILLER_0_16_127
*1361 FILLER_0_16_150
*1362 FILLER_0_16_162
*1363 FILLER_0_16_179
*1364 FILLER_0_16_19
*1365 FILLER_0_16_194
*1366 FILLER_0_16_197
*1367 FILLER_0_16_220
*1368 FILLER_0_16_243
*1369 FILLER_0_16_251
*1370 FILLER_0_16_253
*1371 FILLER_0_16_273
*1372 FILLER_0_16_288
*1373 FILLER_0_16_29
*1374 FILLER_0_16_309
*1375 FILLER_0_16_334
*1376 FILLER_0_16_74
*1377 FILLER_0_17_108
*1378 FILLER_0_17_113
*1379 FILLER_0_17_132
*1380 FILLER_0_17_140
*1381 FILLER_0_17_163
*1382 FILLER_0_17_167
*1383 FILLER_0_17_185
*1384 FILLER_0_17_191
*1385 FILLER_0_17_209
*1386 FILLER_0_17_220
*1387 FILLER_0_17_225
*1388 FILLER_0_17_25
*1389 FILLER_0_17_279
*1390 FILLER_0_17_297
*1391 FILLER_0_17_3
*1392 FILLER_0_17_317
*1393 FILLER_0_17_54
*1394 FILLER_0_17_57
*1395 FILLER_0_17_86
*1396 FILLER_0_18_100
*1397 FILLER_0_18_123
*1398 FILLER_0_18_139
*1399 FILLER_0_18_146
*1400 FILLER_0_18_191
*1401 FILLER_0_18_195
*1402 FILLER_0_18_202
*1403 FILLER_0_18_208
*1404 FILLER_0_18_25
*1405 FILLER_0_18_251
*1406 FILLER_0_18_261
*1407 FILLER_0_18_280
*1408 FILLER_0_18_3
*1409 FILLER_0_18_307
*1410 FILLER_0_18_309
*1411 FILLER_0_18_71
*1412 FILLER_0_18_82
*1413 FILLER_0_18_94
*1414 FILLER_0_19_103
*1415 FILLER_0_19_122
*1416 FILLER_0_19_146
*1417 FILLER_0_19_189
*1418 FILLER_0_19_208
*1419 FILLER_0_19_219
*1420 FILLER_0_19_223
*1421 FILLER_0_19_225
*1422 FILLER_0_19_247
*1423 FILLER_0_19_281
*1424 FILLER_0_19_3
*1425 FILLER_0_19_300
*1426 FILLER_0_19_50
*1427 FILLER_0_19_57
*1428 FILLER_0_1_100
*1429 FILLER_0_1_110
*1430 FILLER_0_1_124
*1431 FILLER_0_1_15
*1432 FILLER_0_1_154
*1433 FILLER_0_1_167
*1434 FILLER_0_1_169
*1435 FILLER_0_1_186
*1436 FILLER_0_1_204
*1437 FILLER_0_1_225
*1438 FILLER_0_1_27
*1439 FILLER_0_1_276
*1440 FILLER_0_1_281
*1441 FILLER_0_1_293
*1442 FILLER_0_1_3
*1443 FILLER_0_1_305
*1444 FILLER_0_1_317
*1445 FILLER_0_1_329
*1446 FILLER_0_1_39
*1447 FILLER_0_1_51
*1448 FILLER_0_1_55
*1449 FILLER_0_1_57
*1450 FILLER_0_1_65
*1451 FILLER_0_1_82
*1452 FILLER_0_20_112
*1453 FILLER_0_20_116
*1454 FILLER_0_20_144
*1455 FILLER_0_20_173
*1456 FILLER_0_20_185
*1457 FILLER_0_20_200
*1458 FILLER_0_20_218
*1459 FILLER_0_20_233
*1460 FILLER_0_20_239
*1461 FILLER_0_20_248
*1462 FILLER_0_20_253
*1463 FILLER_0_20_270
*1464 FILLER_0_20_279
*1465 FILLER_0_20_287
*1466 FILLER_0_20_29
*1467 FILLER_0_20_298
*1468 FILLER_0_20_3
*1469 FILLER_0_20_306
*1470 FILLER_0_20_317
*1471 FILLER_0_20_334
*1472 FILLER_0_20_36
*1473 FILLER_0_20_40
*1474 FILLER_0_20_71
*1475 FILLER_0_20_83
*1476 FILLER_0_20_85
*1477 FILLER_0_20_94
*1478 FILLER_0_21_10
*1479 FILLER_0_21_103
*1480 FILLER_0_21_113
*1481 FILLER_0_21_147
*1482 FILLER_0_21_166
*1483 FILLER_0_21_193
*1484 FILLER_0_21_203
*1485 FILLER_0_21_215
*1486 FILLER_0_21_223
*1487 FILLER_0_21_232
*1488 FILLER_0_21_238
*1489 FILLER_0_21_243
*1490 FILLER_0_21_254
*1491 FILLER_0_21_270
*1492 FILLER_0_21_294
*1493 FILLER_0_21_3
*1494 FILLER_0_21_303
*1495 FILLER_0_21_333
*1496 FILLER_0_21_41
*1497 FILLER_0_21_54
*1498 FILLER_0_21_57
*1499 FILLER_0_21_63
*1500 FILLER_0_21_98
*1501 FILLER_0_22_104
*1502 FILLER_0_22_163
*1503 FILLER_0_22_174
*1504 FILLER_0_22_183
*1505 FILLER_0_22_195
*1506 FILLER_0_22_204
*1507 FILLER_0_22_244
*1508 FILLER_0_22_253
*1509 FILLER_0_22_278
*1510 FILLER_0_22_307
*1511 FILLER_0_22_309
*1512 FILLER_0_22_46
*1513 FILLER_0_22_64
*1514 FILLER_0_22_70
*1515 FILLER_0_22_80
*1516 FILLER_0_23_106
*1517 FILLER_0_23_110
*1518 FILLER_0_23_113
*1519 FILLER_0_23_15
*1520 FILLER_0_23_150
*1521 FILLER_0_23_169
*1522 FILLER_0_23_210
*1523 FILLER_0_23_221
*1524 FILLER_0_23_225
*1525 FILLER_0_23_243
*1526 FILLER_0_23_259
*1527 FILLER_0_23_269
*1528 FILLER_0_23_274
*1529 FILLER_0_23_281
*1530 FILLER_0_23_295
*1531 FILLER_0_23_3
*1532 FILLER_0_23_309
*1533 FILLER_0_23_32
*1534 FILLER_0_23_324
*1535 FILLER_0_23_333
*1536 FILLER_0_23_36
*1537 FILLER_0_23_49
*1538 FILLER_0_23_55
*1539 FILLER_0_23_66
*1540 FILLER_0_23_98
*1541 FILLER_0_24_103
*1542 FILLER_0_24_138
*1543 FILLER_0_24_149
*1544 FILLER_0_24_165
*1545 FILLER_0_24_174
*1546 FILLER_0_24_202
*1547 FILLER_0_24_211
*1548 FILLER_0_24_226
*1549 FILLER_0_24_244
*1550 FILLER_0_24_253
*1551 FILLER_0_24_268
*1552 FILLER_0_24_276
*1553 FILLER_0_24_29
*1554 FILLER_0_24_296
*1555 FILLER_0_24_3
*1556 FILLER_0_24_333
*1557 FILLER_0_24_49
*1558 FILLER_0_24_64
*1559 FILLER_0_24_85
*1560 FILLER_0_25_11
*1561 FILLER_0_25_122
*1562 FILLER_0_25_143
*1563 FILLER_0_25_185
*1564 FILLER_0_25_203
*1565 FILLER_0_25_244
*1566 FILLER_0_25_258
*1567 FILLER_0_25_265
*1568 FILLER_0_25_273
*1569 FILLER_0_25_3
*1570 FILLER_0_25_306
*1571 FILLER_0_25_329
*1572 FILLER_0_25_37
*1573 FILLER_0_25_55
*1574 FILLER_0_25_66
*1575 FILLER_0_25_7
*1576 FILLER_0_25_70
*1577 FILLER_0_25_74
*1578 FILLER_0_25_80
*1579 FILLER_0_25_93
*1580 FILLER_0_26_136
*1581 FILLER_0_26_147
*1582 FILLER_0_26_164
*1583 FILLER_0_26_176
*1584 FILLER_0_26_184
*1585 FILLER_0_26_195
*1586 FILLER_0_26_236
*1587 FILLER_0_26_244
*1588 FILLER_0_26_256
*1589 FILLER_0_26_276
*1590 FILLER_0_26_284
*1591 FILLER_0_26_29
*1592 FILLER_0_26_292
*1593 FILLER_0_26_3
*1594 FILLER_0_26_306
*1595 FILLER_0_26_309
*1596 FILLER_0_26_318
*1597 FILLER_0_26_324
*1598 FILLER_0_26_332
*1599 FILLER_0_26_49
*1600 FILLER_0_26_53
*1601 FILLER_0_26_63
*1602 FILLER_0_26_83
*1603 FILLER_0_27_105
*1604 FILLER_0_27_11
*1605 FILLER_0_27_111
*1606 FILLER_0_27_113
*1607 FILLER_0_27_141
*1608 FILLER_0_27_151
*1609 FILLER_0_27_167
*1610 FILLER_0_27_169
*1611 FILLER_0_27_181
*1612 FILLER_0_27_193
*1613 FILLER_0_27_199
*1614 FILLER_0_27_204
*1615 FILLER_0_27_210
*1616 FILLER_0_27_216
*1617 FILLER_0_27_260
*1618 FILLER_0_27_266
*1619 FILLER_0_27_277
*1620 FILLER_0_27_297
*1621 FILLER_0_27_3
*1622 FILLER_0_27_31
*1623 FILLER_0_27_35
*1624 FILLER_0_27_39
*1625 FILLER_0_27_54
*1626 FILLER_0_27_68
*1627 FILLER_0_27_7
*1628 FILLER_0_27_72
*1629 FILLER_0_28_10
*1630 FILLER_0_28_111
*1631 FILLER_0_28_126
*1632 FILLER_0_28_138
*1633 FILLER_0_28_157
*1634 FILLER_0_28_18
*1635 FILLER_0_28_193
*1636 FILLER_0_28_204
*1637 FILLER_0_28_210
*1638 FILLER_0_28_225
*1639 FILLER_0_28_247
*1640 FILLER_0_28_251
*1641 FILLER_0_28_258
*1642 FILLER_0_28_267
*1643 FILLER_0_28_274
*1644 FILLER_0_28_281
*1645 FILLER_0_28_29
*1646 FILLER_0_28_296
*1647 FILLER_0_28_3
*1648 FILLER_0_28_300
*1649 FILLER_0_28_305
*1650 FILLER_0_28_309
*1651 FILLER_0_28_315
*1652 FILLER_0_28_332
*1653 FILLER_0_28_42
*1654 FILLER_0_29_107
*1655 FILLER_0_29_111
*1656 FILLER_0_29_113
*1657 FILLER_0_29_153
*1658 FILLER_0_29_166
*1659 FILLER_0_29_169
*1660 FILLER_0_29_189
*1661 FILLER_0_29_205
*1662 FILLER_0_29_212
*1663 FILLER_0_29_223
*1664 FILLER_0_29_225
*1665 FILLER_0_29_233
*1666 FILLER_0_29_239
*1667 FILLER_0_29_259
*1668 FILLER_0_29_263
*1669 FILLER_0_29_278
*1670 FILLER_0_29_28
*1671 FILLER_0_29_281
*1672 FILLER_0_29_289
*1673 FILLER_0_29_315
*1674 FILLER_0_29_327
*1675 FILLER_0_29_87
*1676 FILLER_0_2_102
*1677 FILLER_0_2_115
*1678 FILLER_0_2_125
*1679 FILLER_0_2_134
*1680 FILLER_0_2_15
*1681 FILLER_0_2_162
*1682 FILLER_0_2_169
*1683 FILLER_0_2_175
*1684 FILLER_0_2_181
*1685 FILLER_0_2_194
*1686 FILLER_0_2_200
*1687 FILLER_0_2_206
*1688 FILLER_0_2_216
*1689 FILLER_0_2_228
*1690 FILLER_0_2_242
*1691 FILLER_0_2_250
*1692 FILLER_0_2_253
*1693 FILLER_0_2_268
*1694 FILLER_0_2_27
*1695 FILLER_0_2_279
*1696 FILLER_0_2_29
*1697 FILLER_0_2_297
*1698 FILLER_0_2_3
*1699 FILLER_0_2_305
*1700 FILLER_0_2_309
*1701 FILLER_0_2_320
*1702 FILLER_0_2_332
*1703 FILLER_0_2_57
*1704 FILLER_0_2_62
*1705 FILLER_0_2_66
*1706 FILLER_0_2_72
*1707 FILLER_0_2_85
*1708 FILLER_0_2_93
*1709 FILLER_0_30_116
*1710 FILLER_0_30_127
*1711 FILLER_0_30_141
*1712 FILLER_0_30_182
*1713 FILLER_0_30_19
*1714 FILLER_0_30_191
*1715 FILLER_0_30_195
*1716 FILLER_0_30_206
*1717 FILLER_0_30_212
*1718 FILLER_0_30_232
*1719 FILLER_0_30_249
*1720 FILLER_0_30_253
*1721 FILLER_0_30_268
*1722 FILLER_0_30_280
*1723 FILLER_0_30_285
*1724 FILLER_0_30_293
*1725 FILLER_0_30_298
*1726 FILLER_0_30_3
*1727 FILLER_0_30_306
*1728 FILLER_0_30_309
*1729 FILLER_0_30_318
*1730 FILLER_0_30_49
*1731 FILLER_0_30_53
*1732 FILLER_0_30_63
*1733 FILLER_0_30_67
*1734 FILLER_0_30_85
*1735 FILLER_0_30_9
*1736 FILLER_0_31_105
*1737 FILLER_0_31_111
*1738 FILLER_0_31_113
*1739 FILLER_0_31_126
*1740 FILLER_0_31_164
*1741 FILLER_0_31_169
*1742 FILLER_0_31_177
*1743 FILLER_0_31_181
*1744 FILLER_0_31_19
*1745 FILLER_0_31_193
*1746 FILLER_0_31_202
*1747 FILLER_0_31_209
*1748 FILLER_0_31_221
*1749 FILLER_0_31_225
*1750 FILLER_0_31_237
*1751 FILLER_0_31_258
*1752 FILLER_0_31_262
*1753 FILLER_0_31_279
*1754 FILLER_0_31_281
*1755 FILLER_0_31_290
*1756 FILLER_0_31_324
*1757 FILLER_0_31_332
*1758 FILLER_0_31_46
*1759 FILLER_0_31_74
*1760 FILLER_0_32_109
*1761 FILLER_0_32_136
*1762 FILLER_0_32_15