*SPEF "ieee 1481-1999"
*DESIGN "tt_um_hsc_tdc_mux"
*DATE "18:34:05 Friday April 19, 2024"
*VENDOR "The OpenROAD Project"
*PROGRAM "OpenROAD"
*VERSION "0889970d1790a2617e69f253221b8bd7626e51dc"
*DESIGN_FLOW "NAME_SCOPE LOCAL" "PIN_CAP NONE"
*DIVIDER /
*DELIMITER :
*BUS_DELIMITER []
*T_UNIT 1 NS
*C_UNIT 1 PF
*R_UNIT 1 OHM
*L_UNIT 1 HENRY

*NAME_MAP
*3 clk
*4 ena
*5 rst_n
*6 ui_in[0]
*7 ui_in[1]
*8 ui_in[2]
*9 ui_in[3]
*10 ui_in[4]
*11 ui_in[5]
*12 ui_in[6]
*13 ui_in[7]
*14 uio_in[0]
*15 uio_in[1]
*16 uio_in[2]
*17 uio_in[3]
*18 uio_in[4]
*19 uio_in[5]
*20 uio_in[6]
*21 uio_in[7]
*22 net24
*23 net25
*24 net26
*25 net27
*26 net28
*27 net29
*28 net30
*29 net31
*30 net16
*31 net17
*32 net18
*33 net19
*34 net20
*35 net21
*36 net22
*37 net23
*38 uo_out[0]
*39 uo_out[1]
*40 uo_out[2]
*41 uo_out[3]
*42 uo_out[4]
*43 uo_out[5]
*44 uo_out[6]
*45 uo_out[7]
*46 _0000_
*47 _0001_
*48 _0002_
*49 _0003_
*50 _0004_
*51 _0005_
*52 _0006_
*53 _0007_
*54 _0008_
*55 _0009_
*56 _0010_
*57 _0011_
*58 _0012_
*59 _0013_
*60 _0014_
*61 _0015_
*62 _0016_
*63 _0017_
*64 _0018_
*65 _0019_
*66 _0020_
*67 _0021_
*68 _0022_
*69 _0023_
*70 _0024_
*71 _0025_
*72 _0026_
*73 _0027_
*74 _0028_
*75 _0029_
*76 _0030_
*77 _0031_
*78 _0032_
*79 _0033_
*80 _0034_
*81 _0035_
*82 _0036_
*83 _0037_
*84 _0038_
*85 _0039_
*86 _0040_
*87 _0041_
*88 _0042_
*89 _0043_
*90 _0044_
*91 _0045_
*92 _0046_
*93 _0047_
*94 _0048_
*95 _0049_
*96 _0050_
*97 _0051_
*98 _0052_
*99 _0053_
*100 _0054_
*101 _0055_
*102 _0056_
*103 _0057_
*104 _0058_
*105 _0059_
*106 _0060_
*107 _0061_
*108 _0062_
*109 _0063_
*110 _0064_
*111 _0065_
*112 _0066_
*113 _0067_
*114 _0068_
*115 _0069_
*116 _0070_
*117 _0071_
*118 _0072_
*119 _0073_
*120 _0074_
*121 _0075_
*122 _0076_
*123 _0077_
*124 _0078_
*125 _0079_
*126 _0080_
*127 _0081_
*128 _0082_
*129 _0083_
*130 _0084_
*131 _0085_
*132 _0086_
*133 _0087_
*134 _0088_
*135 _0089_
*136 _0090_
*137 _0091_
*138 _0092_
*139 _0093_
*140 _0094_
*141 _0095_
*142 _0096_
*143 _0097_
*144 _0098_
*145 _0099_
*146 _0100_
*147 _0101_
*148 _0102_
*149 _0103_
*150 _0104_
*151 _0105_
*152 _0106_
*153 _0107_
*154 _0108_
*155 _0109_
*156 _0110_
*157 _0111_
*158 _0112_
*159 _0113_
*160 _0114_
*161 _0115_
*162 _0116_
*163 _0117_
*164 _0118_
*165 _0119_
*166 _0120_
*167 _0121_
*168 _0122_
*169 _0123_
*170 _0124_
*171 _0125_
*172 _0126_
*173 _0127_
*174 _0128_
*175 _0129_
*176 _0130_
*177 _0131_
*178 _0132_
*179 _0133_
*180 _0134_
*181 _0135_
*182 _0136_
*183 _0137_
*184 _0138_
*185 _0139_
*186 _0140_
*187 _0141_
*188 _0142_
*189 _0143_
*190 _0144_
*191 _0145_
*192 _0146_
*193 _0147_
*194 _0148_
*195 _0149_
*196 _0150_
*197 _0151_
*198 _0152_
*199 _0153_
*200 _0154_
*201 _0155_
*202 _0156_
*203 _0157_
*204 _0158_
*205 _0159_
*206 _0160_
*207 _0161_
*208 _0162_
*209 _0163_
*210 _0164_
*211 _0165_
*212 _0166_
*213 _0167_
*214 _0168_
*215 _0169_
*216 _0170_
*217 _0171_
*218 _0172_
*219 _0173_
*220 _0174_
*221 _0175_
*222 _0176_
*223 _0177_
*224 _0178_
*225 _0179_
*226 _0180_
*227 _0181_
*228 _0182_
*229 _0183_
*230 _0184_
*231 _0185_
*232 _0186_
*233 _0187_
*234 _0188_
*235 _0189_
*236 _0190_
*237 _0191_
*238 _0192_
*239 _0193_
*240 _0194_
*241 _0195_
*242 _0196_
*243 _0197_
*244 _0198_
*245 _0199_
*246 _0200_
*247 _0201_
*248 _0202_
*249 _0203_
*250 _0204_
*251 _0205_
*252 _0206_
*253 _0207_
*254 _0208_
*255 _0209_
*256 _0210_
*257 _0211_
*258 _0212_
*259 _0213_
*260 _0214_
*261 _0215_
*262 _0216_
*263 _0217_
*264 _0218_
*265 _0219_
*266 _0220_
*267 _0221_
*268 _0222_
*269 _0223_
*270 _0224_
*271 _0225_
*272 _0226_
*273 _0227_
*274 _0228_
*275 _0229_
*276 _0230_
*277 _0231_
*278 _0232_
*279 _0233_
*280 _0234_
*281 _0235_
*282 _0236_
*283 _0237_
*284 _0238_
*285 _0239_
*286 _0240_
*287 _0241_
*288 _0242_
*289 _0243_
*290 _0244_
*291 _0245_
*292 _0246_
*293 _0247_
*294 _0248_
*295 _0249_
*296 _0250_
*297 _0251_
*298 _0252_
*299 _0253_
*300 _0254_
*301 _0255_
*302 _0256_
*303 _0257_
*304 _0258_
*305 _0259_
*306 _0260_
*307 _0261_
*308 _0262_
*309 _0263_
*310 _0264_
*311 _0265_
*312 _0266_
*313 _0267_
*314 _0268_
*315 _0269_
*316 _0270_
*317 _0271_
*318 _0272_
*319 _0273_
*320 _0274_
*321 _0275_
*322 _0276_
*323 _0277_
*324 _0278_
*325 _0279_
*326 _0280_
*327 _0281_
*328 _0282_
*329 _0283_
*330 _0284_
*331 _0285_
*332 _0286_
*333 _0287_
*334 _0288_
*335 _0289_
*336 _0290_
*337 _0291_
*338 _0292_
*339 _0293_
*340 _0294_
*341 _0295_
*342 _0296_
*343 _0297_
*344 _0298_
*345 _0299_
*346 _0300_
*347 _0301_
*348 _0302_
*349 _0303_
*350 _0304_
*351 _0305_
*352 _0306_
*353 _0307_
*354 _0308_
*355 _0309_
*356 _0310_
*357 _0311_
*358 _0312_
*359 _0313_
*360 _0314_
*361 _0315_
*362 _0316_
*363 _0317_
*364 _0318_
*365 _0319_
*366 _0320_
*367 _0321_
*368 _0322_
*369 _0323_
*370 _0324_
*371 _0325_
*372 _0326_
*373 _0327_
*374 _0328_
*375 _0329_
*376 _0330_
*377 _0331_
*378 _0332_
*379 _0333_
*380 _0334_
*381 _0335_
*382 _0336_
*383 _0337_
*384 _0338_
*385 _0339_
*386 _0340_
*387 _0341_
*388 _0342_
*389 _0343_
*390 _0344_
*391 _0345_
*392 _0346_
*393 _0347_
*394 _0348_
*395 _0349_
*396 _0350_
*397 _0351_
*398 _0352_
*399 _0353_
*400 _0354_
*401 _0355_
*402 _0356_
*403 _0357_
*404 _0358_
*405 _0359_
*406 _0360_
*407 _0361_
*408 _0362_
*409 _0363_
*410 _0364_
*411 _0365_
*412 _0366_
*413 _0367_
*414 _0368_
*415 _0369_
*416 _0370_
*417 _0371_
*418 _0372_
*419 _0373_
*420 _0374_
*421 _0375_
*422 _0376_
*423 _0377_
*424 _0378_
*425 _0379_
*426 _0380_
*427 _0381_
*428 _0382_
*429 _0383_
*430 _0384_
*431 _0385_
*432 _0386_
*433 _0387_
*434 _0388_
*435 _0389_
*436 _0390_
*437 _0391_
*438 _0392_
*439 _0393_
*440 _0394_
*441 _0395_
*442 _0396_
*443 _0397_
*444 _0398_
*445 _0399_
*446 _0400_
*447 _0401_
*448 _0402_
*449 _0403_
*450 _0404_
*451 _0405_
*452 _0406_
*453 _0407_
*454 _0408_
*455 _0409_
*456 _0410_
*457 _0411_
*458 _0412_
*459 _0413_
*460 _0414_
*461 _0415_
*462 _0416_
*463 _0417_
*464 _0418_
*465 _0419_
*466 _0420_
*467 _0421_
*468 _0422_
*469 _0423_
*470 _0424_
*471 _0425_
*472 _0426_
*473 _0427_
*474 _0428_
*475 _0429_
*476 _0430_
*477 _0431_
*478 _0432_
*479 _0433_
*480 _0434_
*481 _0435_
*482 _0436_
*483 _0437_
*484 _0438_
*485 _0439_
*486 _0440_
*487 _0441_
*488 _0442_
*489 _0443_
*490 _0444_
*491 _0445_
*492 _0446_
*493 _0447_
*494 _0448_
*495 _0449_
*496 _0450_
*497 _0451_
*498 _0452_
*499 _0453_
*500 _0454_
*501 _0455_
*502 _0456_
*503 _0457_
*504 _0458_
*505 _0459_
*506 _0460_
*507 _0461_
*508 _0462_
*509 _0463_
*510 _0464_
*511 _0465_
*512 _0466_
*513 _0467_
*514 _0468_
*515 _0469_
*516 clknet_0_ui_in[0]
*517 clknet_0_ui_in[1]
*518 clknet_1_0__leaf_ui_in[0]
*519 clknet_1_1__leaf_ui_in[0]
*520 clknet_3_0_0_ui_in[1]
*521 clknet_3_1_0_ui_in[1]
*522 clknet_3_2_0_ui_in[1]
*523 clknet_3_3_0_ui_in[1]
*524 clknet_3_4_0_ui_in[1]
*525 clknet_3_5_0_ui_in[1]
*526 clknet_3_6_0_ui_in[1]
*527 clknet_3_7_0_ui_in[1]
*528 clknet_4_0__leaf_ui_in[1]
*529 clknet_4_10__leaf_ui_in[1]
*530 clknet_4_11__leaf_ui_in[1]
*531 clknet_4_12__leaf_ui_in[1]
*532 clknet_4_13__leaf_ui_in[1]
*533 clknet_4_14__leaf_ui_in[1]
*534 clknet_4_15__leaf_ui_in[1]
*535 clknet_4_1__leaf_ui_in[1]
*536 clknet_4_2__leaf_ui_in[1]
*537 clknet_4_3__leaf_ui_in[1]
*538 clknet_4_4__leaf_ui_in[1]
*539 clknet_4_5__leaf_ui_in[1]
*540 clknet_4_6__leaf_ui_in[1]
*541 clknet_4_7__leaf_ui_in[1]
*542 clknet_4_8__leaf_ui_in[1]
*543 clknet_4_9__leaf_ui_in[1]
*544 net1
*545 net10
*546 net11
*547 net12
*548 net13
*549 net14
*550 net15
*551 net2
*552 net3
*553 net32
*554 net35
*555 net36
*556 net37
*557 net38
*558 net39
*559 net4
*560 net40
*561 net41
*562 net42
*563 net43
*564 net5
*565 net6
*566 net7
*567 net8
*568 net9
*569 tdc_inst\.capt_out\[0\]
*570 tdc_inst\.capt_out\[10\]
*571 tdc_inst\.capt_out\[11\]
*572 tdc_inst\.capt_out\[12\]
*573 tdc_inst\.capt_out\[13\]
*574 tdc_inst\.capt_out\[14\]
*575 tdc_inst\.capt_out\[15\]
*576 tdc_inst\.capt_out\[16\]
*577 tdc_inst\.capt_out\[17\]
*578 tdc_inst\.capt_out\[18\]
*579 tdc_inst\.capt_out\[19\]
*580 tdc_inst\.capt_out\[1\]
*581 tdc_inst\.capt_out\[20\]
*582 tdc_inst\.capt_out\[21\]
*583 tdc_inst\.capt_out\[22\]
*584 tdc_inst\.capt_out\[23\]
*585 tdc_inst\.capt_out\[24\]
*586 tdc_inst\.capt_out\[25\]
*587 tdc_inst\.capt_out\[26\]
*588 tdc_inst\.capt_out\[27\]
*589 tdc_inst\.capt_out\[28\]
*590 tdc_inst\.capt_out\[29\]
*591 tdc_inst\.capt_out\[2\]
*592 tdc_inst\.capt_out\[30\]
*593 tdc_inst\.capt_out\[31\]
*594 tdc_inst\.capt_out\[32\]
*595 tdc_inst\.capt_out\[33\]
*596 tdc_inst\.capt_out\[34\]
*597 tdc_inst\.capt_out\[35\]
*598 tdc_inst\.capt_out\[36\]
*599 tdc_inst\.capt_out\[37\]
*600 tdc_inst\.capt_out\[38\]
*601 tdc_inst\.capt_out\[39\]
*602 tdc_inst\.capt_out\[3\]
*603 tdc_inst\.capt_out\[40\]
*604 tdc_inst\.capt_out\[41\]
*605 tdc_inst\.capt_out\[42\]
*606 tdc_inst\.capt_out\[43\]
*607 tdc_inst\.capt_out\[44\]
*608 tdc_inst\.capt_out\[45\]
*609 tdc_inst\.capt_out\[46\]
*610 tdc_inst\.capt_out\[47\]
*611 tdc_inst\.capt_out\[48\]
*612 tdc_inst\.capt_out\[49\]
*613 tdc_inst\.capt_out\[4\]
*614 tdc_inst\.capt_out\[50\]
*615 tdc_inst\.capt_out\[51\]
*616 tdc_inst\.capt_out\[52\]
*617 tdc_inst\.capt_out\[53\]
*618 tdc_inst\.capt_out\[54\]
*619 tdc_inst\.capt_out\[55\]
*620 tdc_inst\.capt_out\[56\]
*621 tdc_inst\.capt_out\[57\]
*622 tdc_inst\.capt_out\[58\]
*623 tdc_inst\.capt_out\[59\]
*624 tdc_inst\.capt_out\[5\]
*625 tdc_inst\.capt_out\[60\]
*626 tdc_inst\.capt_out\[61\]
*627 tdc_inst\.capt_out\[62\]
*628 tdc_inst\.capt_out\[63\]
*629 tdc_inst\.capt_out\[6\]
*630 tdc_inst\.capt_out\[7\]
*631 tdc_inst\.capt_out\[8\]
*632 tdc_inst\.capt_out\[9\]
*633 tdc_inst\.capt_reg_r\[1\]\[0\]
*634 tdc_inst\.capt_reg_r\[1\]\[10\]
*635 tdc_inst\.capt_reg_r\[1\]\[11\]
*636 tdc_inst\.capt_reg_r\[1\]\[12\]
*637 tdc_inst\.capt_reg_r\[1\]\[13\]
*638 tdc_inst\.capt_reg_r\[1\]\[14\]
*639 tdc_inst\.capt_reg_r\[1\]\[15\]
*640 tdc_inst\.capt_reg_r\[1\]\[16\]
*641 tdc_inst\.capt_reg_r\[1\]\[17\]
*642 tdc_inst\.capt_reg_r\[1\]\[18\]
*643 tdc_inst\.capt_reg_r\[1\]\[19\]
*644 tdc_inst\.capt_reg_r\[1\]\[1\]
*645 tdc_inst\.capt_reg_r\[1\]\[20\]
*646 tdc_inst\.capt_reg_r\[1\]\[21\]
*647 tdc_inst\.capt_reg_r\[1\]\[22\]
*648 tdc_inst\.capt_reg_r\[1\]\[23\]
*649 tdc_inst\.capt_reg_r\[1\]\[24\]
*650 tdc_inst\.capt_reg_r\[1\]\[25\]
*651 tdc_inst\.capt_reg_r\[1\]\[26\]
*652 tdc_inst\.capt_reg_r\[1\]\[27\]
*653 tdc_inst\.capt_reg_r\[1\]\[28\]
*654 tdc_inst\.capt_reg_r\[1\]\[29\]
*655 tdc_inst\.capt_reg_r\[1\]\[2\]
*656 tdc_inst\.capt_reg_r\[1\]\[30\]
*657 tdc_inst\.capt_reg_r\[1\]\[31\]
*658 tdc_inst\.capt_reg_r\[1\]\[32\]
*659 tdc_inst\.capt_reg_r\[1\]\[33\]
*660 tdc_inst\.capt_reg_r\[1\]\[34\]
*661 tdc_inst\.capt_reg_r\[1\]\[35\]
*662 tdc_inst\.capt_reg_r\[1\]\[36\]
*663 tdc_inst\.capt_reg_r\[1\]\[37\]
*664 tdc_inst\.capt_reg_r\[1\]\[38\]
*665 tdc_inst\.capt_reg_r\[1\]\[39\]
*666 tdc_inst\.capt_reg_r\[1\]\[3\]
*667 tdc_inst\.capt_reg_r\[1\]\[40\]
*668 tdc_inst\.capt_reg_r\[1\]\[41\]
*669 tdc_inst\.capt_reg_r\[1\]\[42\]
*670 tdc_inst\.capt_reg_r\[1\]\[43\]
*671 tdc_inst\.capt_reg_r\[1\]\[44\]
*672 tdc_inst\.capt_reg_r\[1\]\[45\]
*673 tdc_inst\.capt_reg_r\[1\]\[46\]
*674 tdc_inst\.capt_reg_r\[1\]\[47\]
*675 tdc_inst\.capt_reg_r\[1\]\[48\]
*676 tdc_inst\.capt_reg_r\[1\]\[49\]
*677 tdc_inst\.capt_reg_r\[1\]\[4\]
*678 tdc_inst\.capt_reg_r\[1\]\[50\]
*679 tdc_inst\.capt_reg_r\[1\]\[51\]
*680 tdc_inst\.capt_reg_r\[1\]\[52\]
*681 tdc_inst\.capt_reg_r\[1\]\[53\]
*682 tdc_inst\.capt_reg_r\[1\]\[54\]
*683 tdc_inst\.capt_reg_r\[1\]\[55\]
*684 tdc_inst\.capt_reg_r\[1\]\[56\]
*685 tdc_inst\.capt_reg_r\[1\]\[57\]
*686 tdc_inst\.capt_reg_r\[1\]\[58\]
*687 tdc_inst\.capt_reg_r\[1\]\[59\]
*688 tdc_inst\.capt_reg_r\[1\]\[5\]
*689 tdc_inst\.capt_reg_r\[1\]\[60\]
*690 tdc_inst\.capt_reg_r\[1\]\[61\]
*691 tdc_inst\.capt_reg_r\[1\]\[62\]
*692 tdc_inst\.capt_reg_r\[1\]\[63\]
*693 tdc_inst\.capt_reg_r\[1\]\[6\]
*694 tdc_inst\.capt_reg_r\[1\]\[7\]
*695 tdc_inst\.capt_reg_r\[1\]\[8\]
*696 tdc_inst\.capt_reg_r\[1\]\[9\]
*697 tdc_inst\.dl_inst\.dl_genblk\.dl\.ffout_w\[0\]
*698 tdc_inst\.dl_inst\.dl_genblk\.dl\.ffout_w\[10\]
*699 tdc_inst\.dl_inst\.dl_genblk\.dl\.ffout_w\[11\]
*700 tdc_inst\.dl_inst\.dl_genblk\.dl\.ffout_w\[12\]
*701 tdc_inst\.dl_inst\.dl_genblk\.dl\.ffout_w\[13\]
*702 tdc_inst\.dl_inst\.dl_genblk\.dl\.ffout_w\[14\]
*703 tdc_inst\.dl_inst\.dl_genblk\.dl\.ffout_w\[15\]
*704 tdc_inst\.dl_inst\.dl_genblk\.dl\.ffout_w\[16\]
*705 tdc_inst\.dl_inst\.dl_genblk\.dl\.ffout_w\[17\]
*706 tdc_inst\.dl_inst\.dl_genblk\.dl\.ffout_w\[18\]
*707 tdc_inst\.dl_inst\.dl_genblk\.dl\.ffout_w\[19\]
*708 tdc_inst\.dl_inst\.dl_genblk\.dl\.ffout_w\[1\]
*709 tdc_inst\.dl_inst\.dl_genblk\.dl\.ffout_w\[20\]
*710 tdc_inst\.dl_inst\.dl_genblk\.dl\.ffout_w\[21\]
*711 tdc_inst\.dl_inst\.dl_genblk\.dl\.ffout_w\[22\]
*712 tdc_inst\.dl_inst\.dl_genblk\.dl\.ffout_w\[23\]
*713 tdc_inst\.dl_inst\.dl_genblk\.dl\.ffout_w\[24\]
*714 tdc_inst\.dl_inst\.dl_genblk\.dl\.ffout_w\[25\]
*715 tdc_inst\.dl_inst\.dl_genblk\.dl\.ffout_w\[26\]
*716 tdc_inst\.dl_inst\.dl_genblk\.dl\.ffout_w\[27\]
*717 tdc_inst\.dl_inst\.dl_genblk\.dl\.ffout_w\[28\]
*718 tdc_inst\.dl_inst\.dl_genblk\.dl\.ffout_w\[29\]
*719 tdc_inst\.dl_inst\.dl_genblk\.dl\.ffout_w\[2\]
*720 tdc_inst\.dl_inst\.dl_genblk\.dl\.ffout_w\[30\]
*721 tdc_inst\.dl_inst\.dl_genblk\.dl\.ffout_w\[31\]
*722 tdc_inst\.dl_inst\.dl_genblk\.dl\.ffout_w\[32\]
*723 tdc_inst\.dl_inst\.dl_genblk\.dl\.ffout_w\[33\]
*724 tdc_inst\.dl_inst\.dl_genblk\.dl\.ffout_w\[34\]
*725 tdc_inst\.dl_inst\.dl_genblk\.dl\.ffout_w\[35\]
*726 tdc_inst\.dl_inst\.dl_genblk\.dl\.ffout_w\[36\]
*727 tdc_inst\.dl_inst\.dl_genblk\.dl\.ffout_w\[37\]
*728 tdc_inst\.dl_inst\.dl_genblk\.dl\.ffout_w\[38\]
*729 tdc_inst\.dl_inst\.dl_genblk\.dl\.ffout_w\[39\]
*730 tdc_inst\.dl_inst\.dl_genblk\.dl\.ffout_w\[3\]
*731 tdc_inst\.dl_inst\.dl_genblk\.dl\.ffout_w\[40\]
*732 tdc_inst\.dl_inst\.dl_genblk\.dl\.ffout_w\[41\]
*733 tdc_inst\.dl_inst\.dl_genblk\.dl\.ffout_w\[42\]
*734 tdc_inst\.dl_inst\.dl_genblk\.dl\.ffout_w\[43\]
*735 tdc_inst\.dl_inst\.dl_genblk\.dl\.ffout_w\[44\]
*736 tdc_inst\.dl_inst\.dl_genblk\.dl\.ffout_w\[45\]
*737 tdc_inst\.dl_inst\.dl_genblk\.dl\.ffout_w\[46\]
*738 tdc_inst\.dl_inst\.dl_genblk\.dl\.ffout_w\[47\]
*739 tdc_inst\.dl_inst\.dl_genblk\.dl\.ffout_w\[48\]
*740 tdc_inst\.dl_inst\.dl_genblk\.dl\.ffout_w\[49\]
*741 tdc_inst\.dl_inst\.dl_genblk\.dl\.ffout_w\[4\]
*742 tdc_inst\.dl_inst\.dl_genblk\.dl\.ffout_w\[50\]
*743 tdc_inst\.dl_inst\.dl_genblk\.dl\.ffout_w\[51\]
*744 tdc_inst\.dl_inst\.dl_genblk\.dl\.ffout_w\[52\]
*745 tdc_inst\.dl_inst\.dl_genblk\.dl\.ffout_w\[53\]
*746 tdc_inst\.dl_inst\.dl_genblk\.dl\.ffout_w\[54\]
*747 tdc_inst\.dl_inst\.dl_genblk\.dl\.ffout_w\[55\]
*748 tdc_inst\.dl_inst\.dl_genblk\.dl\.ffout_w\[56\]
*749 tdc_inst\.dl_inst\.dl_genblk\.dl\.ffout_w\[57\]
*750 tdc_inst\.dl_inst\.dl_genblk\.dl\.ffout_w\[58\]
*751 tdc_inst\.dl_inst\.dl_genblk\.dl\.ffout_w\[59\]
*752 tdc_inst\.dl_inst\.dl_genblk\.dl\.ffout_w\[5\]
*753 tdc_inst\.dl_inst\.dl_genblk\.dl\.ffout_w\[60\]
*754 tdc_inst\.dl_inst\.dl_genblk\.dl\.ffout_w\[61\]
*755 tdc_inst\.dl_inst\.dl_genblk\.dl\.ffout_w\[62\]
*756 tdc_inst\.dl_inst\.dl_genblk\.dl\.ffout_w\[63\]
*757 tdc_inst\.dl_inst\.dl_genblk\.dl\.ffout_w\[64\]
*758 tdc_inst\.dl_inst\.dl_genblk\.dl\.ffout_w\[6\]
*759 tdc_inst\.dl_inst\.dl_genblk\.dl\.ffout_w\[7\]
*760 tdc_inst\.dl_inst\.dl_genblk\.dl\.ffout_w\[8\]
*761 tdc_inst\.dl_inst\.dl_genblk\.dl\.ffout_w\[9\]
*762 tdc_inst\.dl_inst\.dl_genblk\.dl\.hi_int\[0\]
*763 tdc_inst\.dl_inst\.dl_genblk\.dl\.hi_int\[10\]
*764 tdc_inst\.dl_inst\.dl_genblk\.dl\.hi_int\[11\]
*765 tdc_inst\.dl_inst\.dl_genblk\.dl\.hi_int\[12\]
*766 tdc_inst\.dl_inst\.dl_genblk\.dl\.hi_int\[13\]
*767 tdc_inst\.dl_inst\.dl_genblk\.dl\.hi_int\[14\]
*768 tdc_inst\.dl_inst\.dl_genblk\.dl\.hi_int\[15\]
*769 tdc_inst\.dl_inst\.dl_genblk\.dl\.hi_int\[16\]
*770 tdc_inst\.dl_inst\.dl_genblk\.dl\.hi_int\[17\]
*771 tdc_inst\.dl_inst\.dl_genblk\.dl\.hi_int\[18\]
*772 tdc_inst\.dl_inst\.dl_genblk\.dl\.hi_int\[19\]
*773 tdc_inst\.dl_inst\.dl_genblk\.dl\.hi_int\[1\]
*774 tdc_inst\.dl_inst\.dl_genblk\.dl\.hi_int\[20\]
*775 tdc_inst\.dl_inst\.dl_genblk\.dl\.hi_int\[21\]
*776 tdc_inst\.dl_inst\.dl_genblk\.dl\.hi_int\[22\]
*777 tdc_inst\.dl_inst\.dl_genblk\.dl\.hi_int\[23\]
*778 tdc_inst\.dl_inst\.dl_genblk\.dl\.hi_int\[24\]
*779 tdc_inst\.dl_inst\.dl_genblk\.dl\.hi_int\[25\]
*780 tdc_inst\.dl_inst\.dl_genblk\.dl\.hi_int\[26\]
*781 tdc_inst\.dl_inst\.dl_genblk\.dl\.hi_int\[27\]
*782 tdc_inst\.dl_inst\.dl_genblk\.dl\.hi_int\[28\]
*783 tdc_inst\.dl_inst\.dl_genblk\.dl\.hi_int\[29\]
*784 tdc_inst\.dl_inst\.dl_genblk\.dl\.hi_int\[2\]
*785 tdc_inst\.dl_inst\.dl_genblk\.dl\.hi_int\[30\]
*786 tdc_inst\.dl_inst\.dl_genblk\.dl\.hi_int\[31\]
*787 tdc_inst\.dl_inst\.dl_genblk\.dl\.hi_int\[32\]
*788 tdc_inst\.dl_inst\.dl_genblk\.dl\.hi_int\[33\]
*789 tdc_inst\.dl_inst\.dl_genblk\.dl\.hi_int\[34\]
*790 tdc_inst\.dl_inst\.dl_genblk\.dl\.hi_int\[35\]
*791 tdc_inst\.dl_inst\.dl_genblk\.dl\.hi_int\[36\]
*792 tdc_inst\.dl_inst\.dl_genblk\.dl\.hi_int\[37\]
*793 tdc_inst\.dl_inst\.dl_genblk\.dl\.hi_int\[38\]
*794 tdc_inst\.dl_inst\.dl_genblk\.dl\.hi_int\[39\]
*795 tdc_inst\.dl_inst\.dl_genblk\.dl\.hi_int\[3\]
*796 tdc_inst\.dl_inst\.dl_genblk\.dl\.hi_int\[40\]
*797 tdc_inst\.dl_inst\.dl_genblk\.dl\.hi_int\[41\]
*798 tdc_inst\.dl_inst\.dl_genblk\.dl\.hi_int\[42\]
*799 tdc_inst\.dl_inst\.dl_genblk\.dl\.hi_int\[43\]
*800 tdc_inst\.dl_inst\.dl_genblk\.dl\.hi_int\[44\]
*801 tdc_inst\.dl_inst\.dl_genblk\.dl\.hi_int\[45\]
*802 tdc_inst\.dl_inst\.dl_genblk\.dl\.hi_int\[46\]
*803 tdc_inst\.dl_inst\.dl_genblk\.dl\.hi_int\[47\]
*804 tdc_inst\.dl_inst\.dl_genblk\.dl\.hi_int\[48\]
*805 tdc_inst\.dl_inst\.dl_genblk\.dl\.hi_int\[49\]
*806 tdc_inst\.dl_inst\.dl_genblk\.dl\.hi_int\[4\]
*807 tdc_inst\.dl_inst\.dl_genblk\.dl\.hi_int\[50\]
*808 tdc_inst\.dl_inst\.dl_genblk\.dl\.hi_int\[51\]
*809 tdc_inst\.dl_inst\.dl_genblk\.dl\.hi_int\[52\]
*810 tdc_inst\.dl_inst\.dl_genblk\.dl\.hi_int\[53\]
*811 tdc_inst\.dl_inst\.dl_genblk\.dl\.hi_int\[54\]
*812 tdc_inst\.dl_inst\.dl_genblk\.dl\.hi_int\[55\]
*813 tdc_inst\.dl_inst\.dl_genblk\.dl\.hi_int\[56\]
*814 tdc_inst\.dl_inst\.dl_genblk\.dl\.hi_int\[57\]
*815 tdc_inst\.dl_inst\.dl_genblk\.dl\.hi_int\[58\]
*816 tdc_inst\.dl_inst\.dl_genblk\.dl\.hi_int\[59\]
*817 tdc_inst\.dl_inst\.dl_genblk\.dl\.hi_int\[5\]
*818 tdc_inst\.dl_inst\.dl_genblk\.dl\.hi_int\[60\]
*819 tdc_inst\.dl_inst\.dl_genblk\.dl\.hi_int\[61\]
*820 tdc_inst\.dl_inst\.dl_genblk\.dl\.hi_int\[62\]
*821 tdc_inst\.dl_inst\.dl_genblk\.dl\.hi_int\[63\]
*822 tdc_inst\.dl_inst\.dl_genblk\.dl\.hi_int\[6\]
*823 tdc_inst\.dl_inst\.dl_genblk\.dl\.hi_int\[7\]
*824 tdc_inst\.dl_inst\.dl_genblk\.dl\.hi_int\[8\]
*825 tdc_inst\.dl_inst\.dl_genblk\.dl\.hi_int\[9\]
*826 tdc_inst\.dl_inst\.dl_genblk\.dl\.lo_int\[0\]
*827 tdc_inst\.dl_inst\.dl_genblk\.dl\.lo_int\[10\]
*828 tdc_inst\.dl_inst\.dl_genblk\.dl\.lo_int\[11\]
*829 tdc_inst\.dl_inst\.dl_genblk\.dl\.lo_int\[12\]
*830 tdc_inst\.dl_inst\.dl_genblk\.dl\.lo_int\[13\]
*831 tdc_inst\.dl_inst\.dl_genblk\.dl\.lo_int\[14\]
*832 tdc_inst\.dl_inst\.dl_genblk\.dl\.lo_int\[15\]
*833 tdc_inst\.dl_inst\.dl_genblk\.dl\.lo_int\[16\]
*834 tdc_inst\.dl_inst\.dl_genblk\.dl\.lo_int\[17\]
*835 tdc_inst\.dl_inst\.dl_genblk\.dl\.lo_int\[18\]
*836 tdc_inst\.dl_inst\.dl_genblk\.dl\.lo_int\[19\]
*837 tdc_inst\.dl_inst\.dl_genblk\.dl\.lo_int\[1\]
*838 tdc_inst\.dl_inst\.dl_genblk\.dl\.lo_int\[20\]
*839 tdc_inst\.dl_inst\.dl_genblk\.dl\.lo_int\[21\]
*840 tdc_inst\.dl_inst\.dl_genblk\.dl\.lo_int\[22\]
*841 tdc_inst\.dl_inst\.dl_genblk\.dl\.lo_int\[23\]
*842 tdc_inst\.dl_inst\.dl_genblk\.dl\.lo_int\[24\]
*843 tdc_inst\.dl_inst\.dl_genblk\.dl\.lo_int\[25\]
*844 tdc_inst\.dl_inst\.dl_genblk\.dl\.lo_int\[26\]
*845 tdc_inst\.dl_inst\.dl_genblk\.dl\.lo_int\[27\]
*846 tdc_inst\.dl_inst\.dl_genblk\.dl\.lo_int\[28\]
*847 tdc_inst\.dl_inst\.dl_genblk\.dl\.lo_int\[29\]
*848 tdc_inst\.dl_inst\.dl_genblk\.dl\.lo_int\[2\]
*849 tdc_inst\.dl_inst\.dl_genblk\.dl\.lo_int\[30\]
*850 tdc_inst\.dl_inst\.dl_genblk\.dl\.lo_int\[31\]
*851 tdc_inst\.dl_inst\.dl_genblk\.dl\.lo_int\[32\]
*852 tdc_inst\.dl_inst\.dl_genblk\.dl\.lo_int\[33\]
*853 tdc_inst\.dl_inst\.dl_genblk\.dl\.lo_int\[34\]
*854 tdc_inst\.dl_inst\.dl_genblk\.dl\.lo_int\[35\]
*855 tdc_inst\.dl_inst\.dl_genblk\.dl\.lo_int\[36\]
*856 tdc_inst\.dl_inst\.dl_genblk\.dl\.lo_int\[37\]
*857 tdc_inst\.dl_inst\.dl_genblk\.dl\.lo_int\[38\]
*858 tdc_inst\.dl_inst\.dl_genblk\.dl\.lo_int\[39\]
*859 tdc_inst\.dl_inst\.dl_genblk\.dl\.lo_int\[3\]
*860 tdc_inst\.dl_inst\.dl_genblk\.dl\.lo_int\[40\]
*861 tdc_inst\.dl_inst\.dl_genblk\.dl\.lo_int\[41\]
*862 tdc_inst\.dl_inst\.dl_genblk\.dl\.lo_int\[42\]
*863 tdc_inst\.dl_inst\.dl_genblk\.dl\.lo_int\[43\]
*864 tdc_inst\.dl_inst\.dl_genblk\.dl\.lo_int\[44\]
*865 tdc_inst\.dl_inst\.dl_genblk\.dl\.lo_int\[45\]
*866 tdc_inst\.dl_inst\.dl_genblk\.dl\.lo_int\[46\]
*867 tdc_inst\.dl_inst\.dl_genblk\.dl\.lo_int\[47\]
*868 tdc_inst\.dl_inst\.dl_genblk\.dl\.lo_int\[48\]
*869 tdc_inst\.dl_inst\.dl_genblk\.dl\.lo_int\[49\]
*870 tdc_inst\.dl_inst\.dl_genblk\.dl\.lo_int\[4\]
*871 tdc_inst\.dl_inst\.dl_genblk\.dl\.lo_int\[50\]
*872 tdc_inst\.dl_inst\.dl_genblk\.dl\.lo_int\[51\]
*873 tdc_inst\.dl_inst\.dl_genblk\.dl\.lo_int\[52\]
*874 tdc_inst\.dl_inst\.dl_genblk\.dl\.lo_int\[53\]
*875 tdc_inst\.dl_inst\.dl_genblk\.dl\.lo_int\[54\]
*876 tdc_inst\.dl_inst\.dl_genblk\.dl\.lo_int\[55\]
*877 tdc_inst\.dl_inst\.dl_genblk\.dl\.lo_int\[56\]
*878 tdc_inst\.dl_inst\.dl_genblk\.dl\.lo_int\[57\]
*879 tdc_inst\.dl_inst\.dl_genblk\.dl\.lo_int\[58\]
*880 tdc_inst\.dl_inst\.dl_genblk\.dl\.lo_int\[59\]
*881 tdc_inst\.dl_inst\.dl_genblk\.dl\.lo_int\[5\]
*882 tdc_inst\.dl_inst\.dl_genblk\.dl\.lo_int\[60\]
*883 tdc_inst\.dl_inst\.dl_genblk\.dl\.lo_int\[61\]
*884 tdc_inst\.dl_inst\.dl_genblk\.dl\.lo_int\[62\]
*885 tdc_inst\.dl_inst\.dl_genblk\.dl\.lo_int\[63\]
*886 tdc_inst\.dl_inst\.dl_genblk\.dl\.lo_int\[6\]
*887 tdc_inst\.dl_inst\.dl_genblk\.dl\.lo_int\[7\]
*888 tdc_inst\.dl_inst\.dl_genblk\.dl\.lo_int\[8\]
*889 tdc_inst\.dl_inst\.dl_genblk\.dl\.lo_int\[9\]
*890 tdc_inst\.pc_inst\.val_in
*891 tdc_inst\.pc_inst\.val_out
*892 tdc_inst\.pg\.pg_r_out
*893 tdc_inst\.pg\.val_r_out
*894 tdc_inst\.pg_out
*895 tdc_inst\.val_out_capt
*896 ANTENNA_1
*897 ANTENNA_2
*898 FILLER_0_0_109
*899 FILLER_0_0_113
*900 FILLER_0_0_125
*901 FILLER_0_0_137
*902 FILLER_0_0_141
*903 FILLER_0_0_15
*904 FILLER_0_0_153
*905 FILLER_0_0_165
*906 FILLER_0_0_169
*907 FILLER_0_0_181
*908 FILLER_0_0_193
*909 FILLER_0_0_197
*910 FILLER_0_0_209
*911 FILLER_0_0_221
*912 FILLER_0_0_225
*913 FILLER_0_0_237
*914 FILLER_0_0_249
*915 FILLER_0_0_253
*916 FILLER_0_0_265
*917 FILLER_0_0_27
*918 FILLER_0_0_277
*919 FILLER_0_0_281
*920 FILLER_0_0_29
*921 FILLER_0_0_293
*922 FILLER_0_0_3
*923 FILLER_0_0_305
*924 FILLER_0_0_309
*925 FILLER_0_0_321
*926 FILLER_0_0_333
*927 FILLER_0_0_41
*928 FILLER_0_0_53
*929 FILLER_0_0_57
*930 FILLER_0_0_69
*931 FILLER_0_0_81
*932 FILLER_0_0_85
*933 FILLER_0_0_97
*934 FILLER_0_10_109
*935 FILLER_0_10_121
*936 FILLER_0_10_133
*937 FILLER_0_10_139
*938 FILLER_0_10_141
*939 FILLER_0_10_15
*940 FILLER_0_10_153
*941 FILLER_0_10_165
*942 FILLER_0_10_177
*943 FILLER_0_10_189
*944 FILLER_0_10_195
*945 FILLER_0_10_197
*946 FILLER_0_10_209
*947 FILLER_0_10_221
*948 FILLER_0_10_233
*949 FILLER_0_10_245
*950 FILLER_0_10_251
*951 FILLER_0_10_253
*952 FILLER_0_10_265
*953 FILLER_0_10_27
*954 FILLER_0_10_277
*955 FILLER_0_10_289
*956 FILLER_0_10_29
*957 FILLER_0_10_3
*958 FILLER_0_10_301
*959 FILLER_0_10_307
*960 FILLER_0_10_309
*961 FILLER_0_10_321
*962 FILLER_0_10_333
*963 FILLER_0_10_41
*964 FILLER_0_10_53
*965 FILLER_0_10_65
*966 FILLER_0_10_77
*967 FILLER_0_10_83
*968 FILLER_0_10_85
*969 FILLER_0_10_97
*970 FILLER_0_11_129
*971 FILLER_0_11_141
*972 FILLER_0_11_15
*973 FILLER_0_11_153
*974 FILLER_0_11_165
*975 FILLER_0_11_169
*976 FILLER_0_11_181
*977 FILLER_0_11_193
*978 FILLER_0_11_205
*979 FILLER_0_11_217
*980 FILLER_0_11_223
*981 FILLER_0_11_225
*982 FILLER_0_11_237
*983 FILLER_0_11_249
*984 FILLER_0_11_261
*985 FILLER_0_11_27
*986 FILLER_0_11_273
*987 FILLER_0_11_279
*988 FILLER_0_11_281
*989 FILLER_0_11_293
*990 FILLER_0_11_3
*991 FILLER_0_11_305
*992 FILLER_0_11_317
*993 FILLER_0_11_329
*994 FILLER_0_11_39
*995 FILLER_0_11_51
*996 FILLER_0_11_55
*997 FILLER_0_11_57
*998 FILLER_0_11_69
*999 FILLER_0_11_81
*1000 FILLER_0_12_129
*1001 FILLER_0_12_139
*1002 FILLER_0_12_15
*1003 FILLER_0_12_162
*1004 FILLER_0_12_174
*1005 FILLER_0_12_186
*1006 FILLER_0_12_194
*1007 FILLER_0_12_197
*1008 FILLER_0_12_209
*1009 FILLER_0_12_221
*1010 FILLER_0_12_233
*1011 FILLER_0_12_245
*1012 FILLER_0_12_251
*1013 FILLER_0_12_253
*1014 FILLER_0_12_265
*1015 FILLER_0_12_27
*1016 FILLER_0_12_277
*1017 FILLER_0_12_289
*1018 FILLER_0_12_29
*1019 FILLER_0_12_3
*1020 FILLER_0_12_301
*1021 FILLER_0_12_307
*1022 FILLER_0_12_309
*1023 FILLER_0_12_321
*1024 FILLER_0_12_333
*1025 FILLER_0_12_41
*1026 FILLER_0_12_53
*1027 FILLER_0_12_65
*1028 FILLER_0_12_77
*1029 FILLER_0_12_83
*1030 FILLER_0_12_85
*1031 FILLER_0_13_129
*1032 FILLER_0_13_15
*1033 FILLER_0_13_164
*1034 FILLER_0_13_177
*1035 FILLER_0_13_189
*1036 FILLER_0_13_201
*1037 FILLER_0_13_213
*1038 FILLER_0_13_221
*1039 FILLER_0_13_225
*1040 FILLER_0_13_237
*1041 FILLER_0_13_249
*1042 FILLER_0_13_261
*1043 FILLER_0_13_27
*1044 FILLER_0_13_273
*1045 FILLER_0_13_279
*1046 FILLER_0_13_281
*1047 FILLER_0_13_293
*1048 FILLER_0_13_3
*1049 FILLER_0_13_305
*1050 FILLER_0_13_317
*1051 FILLER_0_13_329
*1052 FILLER_0_13_39
*1053 FILLER_0_13_51
*1054 FILLER_0_13_55
*1055 FILLER_0_13_57
*1056 FILLER_0_13_69
*1057 FILLER_0_13_81
*1058 FILLER_0_14_129
*1059 FILLER_0_14_15
*1060 FILLER_0_14_162
*1061 FILLER_0_14_180
*1062 FILLER_0_14_192
*1063 FILLER_0_14_197
*1064 FILLER_0_14_209
*1065 FILLER_0_14_221
*1066 FILLER_0_14_233
*1067 FILLER_0_14_245
*1068 FILLER_0_14_251
*1069 FILLER_0_14_253
*1070 FILLER_0_14_265
*1071 FILLER_0_14_27
*1072 FILLER_0_14_277
*1073 FILLER_0_14_289
*1074 FILLER_0_14_29
*1075 FILLER_0_14_3
*1076 FILLER_0_14_301
*1077 FILLER_0_14_307
*1078 FILLER_0_14_309
*1079 FILLER_0_14_321
*1080 FILLER_0_14_333
*1081 FILLER_0_14_41
*1082 FILLER_0_14_53
*1083 FILLER_0_14_65
*1084 FILLER_0_14_77
*1085 FILLER_0_14_83
*1086 FILLER_0_14_85
*1087 FILLER_0_15_129
*1088 FILLER_0_15_133
*1089 FILLER_0_15_15
*1090 FILLER_0_15_165
*1091 FILLER_0_15_189
*1092 FILLER_0_15_213
*1093 FILLER_0_15_221
*1094 FILLER_0_15_225
*1095 FILLER_0_15_237
*1096 FILLER_0_15_249
*1097 FILLER_0_15_261
*1098 FILLER_0_15_27
*1099 FILLER_0_15_273
*1100 FILLER_0_15_279
*1101 FILLER_0_15_281
*1102 FILLER_0_15_293
*1103 FILLER_0_15_3
*1104 FILLER_0_15_305
*1105 FILLER_0_15_317
*1106 FILLER_0_15_329
*1107 FILLER_0_15_39
*1108 FILLER_0_15_51
*1109 FILLER_0_15_55
*1110 FILLER_0_15_57
*1111 FILLER_0_15_69
*1112 FILLER_0_15_81
*1113 FILLER_0_16_129
*1114 FILLER_0_16_138
*1115 FILLER_0_16_141
*1116 FILLER_0_16_15
*1117 FILLER_0_16_153
*1118 FILLER_0_16_188
*1119 FILLER_0_16_197
*1120 FILLER_0_16_209
*1121 FILLER_0_16_221
*1122 FILLER_0_16_233
*1123 FILLER_0_16_245
*1124 FILLER_0_16_251
*1125 FILLER_0_16_253
*1126 FILLER_0_16_265
*1127 FILLER_0_16_27
*1128 FILLER_0_16_277
*1129 FILLER_0_16_289
*1130 FILLER_0_16_29
*1131 FILLER_0_16_3
*1132 FILLER_0_16_301
*1133 FILLER_0_16_307
*1134 FILLER_0_16_309
*1135 FILLER_0_16_321
*1136 FILLER_0_16_333
*1137 FILLER_0_16_41
*1138 FILLER_0_16_53
*1139 FILLER_0_16_65
*1140 FILLER_0_16_77
*1141 FILLER_0_16_83
*1142 FILLER_0_16_85
*1143 FILLER_0_17_129
*1144 FILLER_0_17_15
*1145 FILLER_0_17_155
*1146 FILLER_0_17_167
*1147 FILLER_0_17_169
*1148 FILLER_0_17_181
*1149 FILLER_0_17_188
*1150 FILLER_0_17_200
*1151 FILLER_0_17_212
*1152 FILLER_0_17_225
*1153 FILLER_0_17_237
*1154 FILLER_0_17_249
*1155 FILLER_0_17_261
*1156 FILLER_0_17_27
*1157 FILLER_0_17_273
*1158 FILLER_0_17_279
*1159 FILLER_0_17_281
*1160 FILLER_0_17_293
*1161 FILLER_0_17_3
*1162 FILLER_0_17_305
*1163 FILLER_0_17_317
*1164 FILLER_0_17_329
*1165 FILLER_0_17_39
*1166 FILLER_0_17_51
*1167 FILLER_0_17_55
*1168 FILLER_0_17_57
*1169 FILLER_0_17_69
*1170 FILLER_0_17_81
*1171 FILLER_0_18_137
*1172 FILLER_0_18_141
*1173 FILLER_0_18_15
*1174 FILLER_0_18_166
*1175 FILLER_0_18_175
*1176 FILLER_0_18_187
*1177 FILLER_0_18_195
*1178 FILLER_0_18_197
*1179 FILLER_0_18_209
*1180 FILLER_0_18_221
*1181 FILLER_0_18_233
*1182 FILLER_0_18_245
*1183 FILLER_0_18_251
*1184 FILLER_0_18_253
*1185 FILLER_0_18_265
*1186 FILLER_0_18_27
*1187 FILLER_0_18_277
*1188 FILLER_0_18_289
*1189 FILLER_0_18_29
*1190 FILLER_0_18_3
*1191 FILLER_0_18_301
*1192 FILLER_0_18_307
*1193 FILLER_0_18_309
*1194 FILLER_0_18_321
*1195 FILLER_0_18_333
*1196 FILLER_0_18_41
*1197 FILLER_0_18_53
*1198 FILLER_0_18_65
*1199 FILLER_0_18_77
*1200 FILLER_0_18_83
*1201 FILLER_0_18_85
*1202 FILLER_0_19_145
*1203 FILLER_0_19_15
*1204 FILLER_0_19_190
*1205 FILLER_0_19_202
*1206 FILLER_0_19_214
*1207 FILLER_0_19_222
*1208 FILLER_0_19_225
*1209 FILLER_0_19_237
*1210 FILLER_0_19_249
*1211 FILLER_0_19_261
*1212 FILLER_0_19_27
*1213 FILLER_0_19_273
*1214 FILLER_0_19_279
*1215 FILLER_0_19_281
*1216 FILLER_0_19_293
*1217 FILLER_0_19_3
*1218 FILLER_0_19_305
*1219 FILLER_0_19_317
*1220 FILLER_0_19_329
*1221 FILLER_0_19_39
*1222 FILLER_0_19_51
*1223 FILLER_0_19_55
*1224 FILLER_0_19_57
*1225 FILLER_0_19_69
*1226 FILLER_0_19_81
*1227 FILLER_0_1_105
*1228 FILLER_0_1_111
*1229 FILLER_0_1_113
*1230 FILLER_0_1_125
*1231 FILLER_0_1_137
*1232 FILLER_0_1_149
*1233 FILLER_0_1_15
*1234 FILLER_0_1_161
*1235 FILLER_0_1_167
*1236 FILLER_0_1_169
*1237 FILLER_0_1_181
*1238 FILLER_0_1_193
*1239 FILLER_0_1_205
*1240 FILLER_0_1_217
*1241 FILLER_0_1_223
*1242 FILLER_0_1_225
*1243 FILLER_0_1_237
*1244 FILLER_0_1_249
*1245 FILLER_0_1_261
*1246 FILLER_0_1_27
*1247 FILLER_0_1_273
*1248 FILLER_0_1_279
*1249 FILLER_0_1_281
*1250 FILLER_0_1_293
*1251 FILLER_0_1_3
*1252 FILLER_0_1_305
*1253 FILLER_0_1_317
*1254 FILLER_0_1_329
*1255 FILLER_0_1_39
*1256 FILLER_0_1_51
*1257 FILLER_0_1_55
*1258 FILLER_0_1_57
*1259 FILLER_0_1_69
*1260 FILLER_0_1_81
*1261 FILLER_0_1_93
*1262 FILLER_0_20_129
*1263 FILLER_0_20_15
*1264 FILLER_0_20_157
*1265 FILLER_0_20_192
*1266 FILLER_0_20_197
*1267 FILLER_0_20_209
*1268 FILLER_0_20_221
*1269 FILLER_0_20_233
*1270 FILLER_0_20_245
*1271 FILLER_0_20_251