*SPEF "ieee 1481-1999"
*DESIGN "tt_um_tiny_shader_mole99"
*DATE "14:27:23 Friday April 19, 2024"
*VENDOR "The OpenROAD Project"
*PROGRAM "OpenROAD"
*VERSION "0889970d1790a2617e69f253221b8bd7626e51dc"
*DESIGN_FLOW "NAME_SCOPE LOCAL" "PIN_CAP NONE"
*DIVIDER /
*DELIMITER :
*BUS_DELIMITER []
*T_UNIT 1 NS
*C_UNIT 1 PF
*R_UNIT 1 OHM
*L_UNIT 1 HENRY

*NAME_MAP
*3 clk
*4 ena
*5 rst_n
*6 ui_in[0]
*7 ui_in[1]
*8 ui_in[2]
*9 ui_in[3]
*10 ui_in[4]
*11 ui_in[5]
*12 ui_in[6]
*13 ui_in[7]
*14 uio_in[0]
*15 uio_in[1]
*16 uio_in[2]
*17 uio_in[3]
*18 uio_in[4]
*19 uio_in[5]
*20 uio_in[6]
*21 uio_in[7]
*22 net38
*23 net39
*24 net46
*25 net40
*26 net47
*27 net48
*28 net41
*29 net42
*30 net43
*31 net44
*32 uio_out[2]
*33 net45
*34 uio_out[4]
*35 uio_out[5]
*36 uio_out[6]
*37 uio_out[7]
*38 uo_out[0]
*39 uo_out[1]
*40 uo_out[2]
*41 uo_out[3]
*42 uo_out[4]
*43 uo_out[5]
*44 uo_out[6]
*45 uo_out[7]
*46 _0000_
*47 _0001_
*48 _0002_
*49 _0003_
*50 _0004_
*51 _0005_
*52 _0006_
*53 _0007_
*54 _0008_
*55 _0009_
*56 _0010_
*57 _0011_
*58 _0012_
*59 _0014_
*60 _0015_
*61 _0016_
*62 _0017_
*63 _0018_
*64 _0019_
*65 _0020_
*66 _0021_
*67 _0022_
*68 _0023_
*69 _0024_
*70 _0025_
*71 _0026_
*72 _0027_
*73 _0028_
*74 _0029_
*75 _0030_
*76 _0031_
*77 _0032_
*78 _0033_
*79 _0034_
*80 _0035_
*81 _0036_
*82 _0037_
*83 _0038_
*84 _0039_
*85 _0040_
*86 _0041_
*87 _0042_
*88 _0043_
*89 _0044_
*90 _0045_
*91 _0046_
*92 _0047_
*93 _0048_
*94 _0049_
*95 _0050_
*96 _0051_
*97 _0052_
*98 _0053_
*99 _0054_
*100 _0055_
*101 _0056_
*102 _0057_
*103 _0058_
*104 _0059_
*105 _0060_
*106 _0061_
*107 _0062_
*108 _0063_
*109 _0064_
*110 _0065_
*111 _0066_
*112 _0067_
*113 _0068_
*114 _0069_
*115 _0070_
*116 _0071_
*117 _0072_
*118 _0073_
*119 _0074_
*120 _0075_
*121 _0076_
*122 _0077_
*123 _0078_
*124 _0079_
*125 _0080_
*126 _0081_
*127 _0082_
*128 _0083_
*129 _0084_
*130 _0085_
*131 _0086_
*132 _0087_
*133 _0088_
*134 _0089_
*135 _0090_
*136 _0091_
*137 _0092_
*138 _0093_
*139 _0094_
*140 _0095_
*141 _0096_
*142 _0097_
*143 _0098_
*144 _0099_
*145 _0100_
*146 _0101_
*147 _0102_
*148 _0103_
*149 _0104_
*150 _0105_
*151 _0106_
*152 _0107_
*153 _0108_
*154 _0109_
*155 _0110_
*156 _0111_
*157 _0112_
*158 _0113_
*159 _0114_
*160 _0115_
*161 _0116_
*162 _0117_
*163 _0118_
*164 _0119_
*165 _0120_
*166 _0121_
*167 _0122_
*168 _0123_
*169 _0124_
*170 _0125_
*171 _0126_
*172 _0127_
*173 _0128_
*174 _0129_
*175 _0130_
*176 _0131_
*177 _0132_
*178 _0133_
*179 _0134_
*180 _0135_
*181 _0136_
*182 _0137_
*183 _0138_
*184 _0139_
*185 _0140_
*186 _0141_
*187 _0142_
*188 _0143_
*189 _0144_
*190 _0145_
*191 _0146_
*192 _0147_
*193 _0148_
*194 _0149_
*195 _0150_
*196 _0151_
*197 _0152_
*198 _0153_
*199 _0154_
*200 _0155_
*201 _0156_
*202 _0157_
*203 _0158_
*204 _0159_
*205 _0160_
*206 _0161_
*207 _0162_
*208 _0163_
*209 _0164_
*210 _0165_
*211 _0166_
*212 _0167_
*213 _0168_
*214 _0169_
*215 _0170_
*216 _0171_
*217 _0172_
*218 _0173_
*219 _0174_
*220 _0175_
*221 _0176_
*222 _0177_
*223 _0178_
*224 _0179_
*225 _0180_
*226 _0181_
*227 _0182_
*228 _0183_
*229 _0184_
*230 _0185_
*231 _0186_
*232 _0187_
*233 _0188_
*234 _0189_
*235 _0190_
*236 _0191_
*237 _0192_
*238 _0193_
*239 _0194_
*240 _0195_
*241 _0196_
*242 _0197_
*243 _0198_
*244 _0199_
*245 _0200_
*246 _0201_
*247 _0202_
*248 _0203_
*249 _0204_
*250 _0205_
*251 _0206_
*252 _0207_
*253 _0208_
*254 _0209_
*255 _0210_
*256 _0211_
*257 _0212_
*258 _0213_
*259 _0214_
*260 _0215_
*261 _0216_
*262 _0217_
*263 _0218_
*264 _0219_
*265 _0220_
*266 _0221_
*267 _0222_
*268 _0223_
*269 _0224_
*270 _0225_
*271 _0226_
*272 _0227_
*273 _0228_
*274 _0229_
*275 _0230_
*276 _0231_
*277 _0232_
*278 _0233_
*279 _0234_
*280 _0235_
*281 _0236_
*282 _0237_
*283 _0238_
*284 _0239_
*285 _0240_
*286 _0241_
*287 _0242_
*288 _0243_
*289 _0244_
*290 _0245_
*291 _0246_
*292 _0247_
*293 _0248_
*294 _0249_
*295 _0250_
*296 _0251_
*297 _0252_
*298 _0253_
*299 _0254_
*300 _0255_
*301 _0256_
*302 _0257_
*303 _0258_
*304 _0259_
*305 _0260_
*306 _0261_
*307 _0262_
*308 _0263_
*309 _0264_
*310 _0265_
*311 _0266_
*312 _0267_
*313 _0268_
*314 _0269_
*315 _0270_
*316 _0271_
*317 _0272_
*318 _0273_
*319 _0274_
*320 _0275_
*321 _0276_
*322 _0277_
*323 _0278_
*324 _0279_
*325 _0280_
*326 _0281_
*327 _0282_
*328 _0283_
*329 _0284_
*330 _0285_
*331 _0286_
*332 _0287_
*333 _0288_
*334 _0289_
*335 _0290_
*336 _0291_
*337 _0292_
*338 _0293_
*339 _0294_
*340 _0295_
*341 _0296_
*342 _0297_
*343 _0298_
*344 _0299_
*345 _0300_
*346 _0301_
*347 _0302_
*348 _0303_
*349 _0304_
*350 _0305_
*351 _0306_
*352 _0307_
*353 _0308_
*354 _0309_
*355 _0310_
*356 _0311_
*357 _0312_
*358 _0313_
*359 _0314_
*360 _0315_
*361 _0316_
*362 _0317_
*363 _0318_
*364 _0319_
*365 _0320_
*366 _0321_
*367 _0322_
*368 _0323_
*369 _0324_
*370 _0325_
*371 _0326_
*372 _0327_
*373 _0328_
*374 _0329_
*375 _0330_
*376 _0331_
*377 _0332_
*378 _0333_
*379 _0334_
*380 _0335_
*381 _0336_
*382 _0337_
*383 _0338_
*384 _0339_
*385 _0340_
*386 _0341_
*387 _0342_
*388 _0343_
*389 _0344_
*390 _0345_
*391 _0346_
*392 _0347_
*393 _0348_
*394 _0349_
*395 _0350_
*396 _0351_
*397 _0352_
*398 _0353_
*399 _0354_
*400 _0355_
*401 _0356_
*402 _0357_
*403 _0358_
*404 _0359_
*405 _0360_
*406 _0361_
*407 _0362_
*408 _0363_
*409 _0364_
*410 _0365_
*411 _0366_
*412 _0367_
*413 _0368_
*414 _0369_
*415 _0370_
*416 _0371_
*417 _0372_
*418 _0373_
*419 _0374_
*420 _0375_
*421 _0376_
*422 _0377_
*423 _0378_
*424 _0379_
*425 _0380_
*426 _0381_
*427 _0382_
*428 _0383_
*429 _0384_
*430 _0385_
*431 _0386_
*432 _0387_
*433 _0388_
*434 _0389_
*435 _0390_
*436 _0391_
*437 _0392_
*438 _0393_
*439 _0394_
*440 _0395_
*441 _0396_
*442 _0397_
*443 _0398_
*444 _0399_
*445 _0400_
*446 _0401_
*447 _0402_
*448 _0403_
*449 _0404_
*450 _0405_
*451 _0406_
*452 _0407_
*453 _0408_
*454 _0409_
*455 _0410_
*456 _0411_
*457 _0412_
*458 _0413_
*459 _0414_
*460 _0415_
*461 _0416_
*462 _0417_
*463 _0418_
*464 _0419_
*465 _0420_
*466 _0421_
*467 _0422_
*468 _0423_
*469 _0424_
*470 _0425_
*471 _0426_
*472 _0427_
*473 _0428_
*474 _0429_
*475 _0430_
*476 _0431_
*477 _0432_
*478 _0433_
*479 _0434_
*480 _0435_
*481 _0436_
*482 _0437_
*483 _0438_
*484 _0439_
*485 _0440_
*486 _0441_
*487 _0442_
*488 _0443_
*489 _0444_
*490 _0445_
*491 _0446_
*492 _0447_
*493 _0448_
*494 _0449_
*495 _0450_
*496 _0451_
*497 _0452_
*498 _0453_
*499 _0454_
*500 _0455_
*501 _0456_
*502 _0457_
*503 _0458_
*504 _0459_
*505 _0460_
*506 _0461_
*507 _0462_
*508 _0463_
*509 _0464_
*510 _0465_
*511 _0466_
*512 _0467_
*513 _0468_
*514 _0469_
*515 _0470_
*516 _0471_
*517 _0472_
*518 _0473_
*519 _0474_
*520 _0475_
*521 _0476_
*522 _0477_
*523 _0478_
*524 _0479_
*525 _0480_
*526 _0481_
*527 _0482_
*528 _0483_
*529 _0484_
*530 _0485_
*531 _0486_
*532 _0487_
*533 _0488_
*534 _0489_
*535 _0490_
*536 _0491_
*537 _0492_
*538 _0493_
*539 _0494_
*540 _0495_
*541 _0496_
*542 _0497_
*543 _0498_
*544 _0499_
*545 _0500_
*546 _0501_
*547 _0502_
*548 _0503_
*549 _0504_
*550 _0505_
*551 _0506_
*552 _0507_
*553 _0508_
*554 _0509_
*555 _0510_
*556 _0511_
*557 _0512_
*558 _0513_
*559 _0514_
*560 _0515_
*561 _0516_
*562 _0517_
*563 _0518_
*564 _0519_
*565 _0520_
*566 _0521_
*567 _0522_
*568 _0523_
*569 _0524_
*570 _0525_
*571 _0526_
*572 _0527_
*573 _0528_
*574 _0529_
*575 _0530_
*576 _0531_
*577 _0532_
*578 _0533_
*579 _0534_
*580 _0535_
*581 _0536_
*582 _0537_
*583 _0538_
*584 _0539_
*585 _0540_
*586 _0541_
*587 _0542_
*588 _0543_
*589 _0544_
*590 _0545_
*591 _0546_
*592 _0547_
*593 _0548_
*594 _0549_
*595 _0550_
*596 _0551_
*597 _0552_
*598 _0553_
*599 _0554_
*600 _0555_
*601 _0556_
*602 _0557_
*603 _0558_
*604 _0559_
*605 _0560_
*606 _0561_
*607 _0562_
*608 _0563_
*609 _0564_
*610 _0565_
*611 _0566_
*612 _0567_
*613 _0568_
*614 _0569_
*615 _0570_
*616 _0571_
*617 _0572_
*618 _0573_
*619 _0574_
*620 _0575_
*621 _0576_
*622 _0577_
*623 _0578_
*624 _0579_
*625 _0580_
*626 _0581_
*627 _0582_
*628 _0583_
*629 _0584_
*630 _0585_
*631 _0586_
*632 _0587_
*633 _0588_
*634 _0589_
*635 _0590_
*636 _0591_
*637 _0592_
*638 _0593_
*639 _0594_
*640 _0595_
*641 _0596_
*642 _0597_
*643 _0598_
*644 _0599_
*645 _0600_
*646 _0601_
*647 _0602_
*648 _0603_
*649 _0604_
*650 _0605_
*651 _0606_
*652 _0607_
*653 _0608_
*654 _0609_
*655 _0610_
*656 _0611_
*657 _0612_
*658 _0613_
*659 _0614_
*660 _0615_
*661 _0616_
*662 _0617_
*663 _0618_
*664 _0619_
*665 _0620_
*666 _0621_
*667 _0622_
*668 _0623_
*669 _0624_
*670 _0625_
*671 _0626_
*672 _0627_
*673 _0628_
*674 _0629_
*675 _0630_
*676 _0631_
*677 _0632_
*678 _0633_
*679 _0634_
*680 _0635_
*681 _0636_
*682 _0637_
*683 _0638_
*684 _0639_
*685 _0640_
*686 _0641_
*687 _0642_
*688 _0643_
*689 _0644_
*690 _0645_
*691 _0646_
*692 _0647_
*693 _0648_
*694 _0649_
*695 _0650_
*696 _0651_
*697 _0652_
*698 _0653_
*699 _0654_
*700 _0655_
*701 _0656_
*702 _0657_
*703 _0658_
*704 _0659_
*705 _0660_
*706 _0661_
*707 _0662_
*708 _0663_
*709 _0664_
*710 _0665_
*711 _0666_
*712 _0667_
*713 _0668_
*714 _0669_
*715 _0670_
*716 _0671_
*717 _0672_
*718 _0673_
*719 _0674_
*720 _0675_
*721 _0676_
*722 _0677_
*723 _0678_
*724 _0679_
*725 _0680_
*726 _0681_
*727 _0682_
*728 _0683_
*729 _0684_
*730 _0685_
*731 _0686_
*732 _0687_
*733 _0688_
*734 _0689_
*735 _0690_
*736 _0691_
*737 _0692_
*738 _0693_
*739 _0694_
*740 _0695_
*741 _0696_
*742 _0697_
*743 _0698_
*744 _0699_
*745 _0700_
*746 _0701_
*747 _0702_
*748 _0703_
*749 _0704_
*750 _0705_
*751 _0706_
*752 _0707_
*753 _0708_
*754 _0709_
*755 _0710_
*756 _0711_
*757 _0712_
*758 _0713_
*759 _0714_
*760 _0715_
*761 _0716_
*762 _0717_
*763 _0718_
*764 _0719_
*765 _0720_
*766 _0721_
*767 _0722_
*768 _0723_
*769 _0724_
*770 _0725_
*771 _0726_
*772 _0727_
*773 _0728_
*774 _0729_
*775 _0730_
*776 _0731_
*777 _0732_
*778 _0733_
*779 _0734_
*780 _0735_
*781 _0736_
*782 _0737_
*783 _0738_
*784 _0739_
*785 _0740_
*786 _0741_
*787 _0742_
*788 _0743_
*789 _0744_
*790 _0745_
*791 _0746_
*792 _0747_
*793 _0748_
*794 _0749_
*795 _0750_
*796 _0751_
*797 _0752_
*798 _0753_
*799 _0754_
*800 _0755_
*801 _0756_
*802 _0757_
*803 _0758_
*804 _0759_
*805 _0760_
*806 _0761_
*807 _0762_
*808 _0763_
*809 _0764_
*810 _0765_
*811 _0766_
*812 _0767_
*813 _0768_
*814 _0769_
*815 _0770_
*816 _0771_
*817 _0772_
*818 _0773_
*819 _0774_
*820 _0775_
*821 _0776_
*822 _0777_
*823 _0778_
*824 _0779_
*825 _0780_
*826 _0781_
*827 _0782_
*828 _0783_
*829 _0784_
*830 _0785_
*831 _0786_
*832 _0787_
*833 _0788_
*834 _0789_
*835 _0790_
*836 _0791_
*837 _0792_
*838 _0793_
*839 _0794_
*840 _0795_
*841 _0796_
*842 _0797_
*843 _0798_
*844 _0799_
*845 _0800_
*846 _0801_
*847 _0802_
*848 _0803_
*849 _0804_
*850 _0805_
*851 _0806_
*852 _0807_
*853 _0808_
*854 _0809_
*855 _0810_
*856 _0811_
*857 _0812_
*858 _0813_
*859 _0814_
*860 _0815_
*861 _0816_
*862 _0817_
*863 _0818_
*864 _0819_
*865 _0820_
*866 _0821_
*867 _0822_
*868 _0823_
*869 _0824_
*870 _0825_
*871 _0826_
*872 _0827_
*873 _0828_
*874 _0829_
*875 _0830_
*876 _0831_
*877 _0832_
*878 _0833_
*879 _0834_
*880 _0835_
*881 _0836_
*882 _0837_
*883 _0838_
*884 _0839_
*885 _0840_
*886 _0841_
*887 _0842_
*888 _0843_
*889 _0844_
*890 _0845_
*891 _0846_
*892 _0847_
*893 _0848_
*894 _0849_
*895 _0850_
*896 _0851_
*897 _0852_
*898 _0853_
*899 _0854_
*900 _0855_
*901 _0856_
*902 _0857_
*903 _0858_
*904 _0859_
*905 _0860_
*906 _0861_
*907 _0862_
*908 _0863_
*909 _0864_
*910 _0865_
*911 _0866_
*912 _0867_
*913 _0868_
*914 _0869_
*915 _0870_
*916 _0871_
*917 _0872_
*918 _0873_
*919 _0874_
*920 _0875_
*921 _0876_
*922 _0877_
*923 _0878_
*924 _0879_
*925 _0880_
*926 _0881_
*927 _0882_
*928 _0883_
*929 _0884_
*930 _0885_
*931 _0886_
*932 _0887_
*933 _0888_
*934 _0889_
*935 _0890_
*936 _0891_
*937 _0892_
*938 _0893_
*939 _0894_
*940 _0895_
*941 _0896_
*942 _0897_
*943 _0898_
*944 _0899_
*945 _0900_
*946 _0901_
*947 clknet_0_clk
*948 clknet_1_0__leaf_clk
*949 clknet_1_1__leaf_clk
*950 clknet_leaf_0_clk
*951 clknet_leaf_10_clk
*952 clknet_leaf_11_clk
*953 clknet_leaf_1_clk
*954 clknet_leaf_2_clk
*955 clknet_leaf_3_clk
*956 clknet_leaf_4_clk
*957 clknet_leaf_5_clk
*958 clknet_leaf_6_clk
*959 clknet_leaf_7_clk
*960 clknet_leaf_8_clk
*961 clknet_leaf_9_clk
*962 net1
*963 net10
*964 net100
*965 net101
*966 net102
*967 net103
*968 net104
*969 net105
*970 net106
*971 net107
*972 net108
*973 net109
*974 net11
*975 net110
*976 net111
*977 net112
*978 net113
*979 net114
*980 net115
*981 net116
*982 net117
*983 net118
*984 net119
*985 net12
*986 net120
*987 net121
*988 net122
*989 net123
*990 net124
*991 net125
*992 net126
*993 net127
*994 net128
*995 net129
*996 net13
*997 net130
*998 net131
*999 net132
*1000 net133
*1001 net134
*1002 net135
*1003 net136
*1004 net137
*1005 net138
*1006 net139
*1007 net14
*1008 net140
*1009 net141
*1010 net142
*1011 net143
*1012 net144
*1013 net145
*1014 net146
*1015 net147
*1016 net148
*1017 net149
*1018 net15
*1019 net150
*1020 net151
*1021 net152
*1022 net153
*1023 net154
*1024 net155
*1025 net156
*1026 net157
*1027 net158
*1028 net16
*1029 net17
*1030 net18
*1031 net19
*1032 net2
*1033 net20
*1034 net21
*1035 net22
*1036 net23
*1037 net24
*1038 net25
*1039 net26
*1040 net27
*1041 net28
*1042 net29
*1043 net3
*1044 net30
*1045 net31
*1046 net32
*1047 net33
*1048 net34
*1049 net35
*1050 net36
*1051 net37
*1052 net4
*1053 net49
*1054 net5
*1055 net50
*1056 net51
*1057 net52
*1058 net53
*1059 net54
*1060 net55
*1061 net56
*1062 net57
*1063 net58
*1064 net59
*1065 net6
*1066 net60
*1067 net61
*1068 net62
*1069 net63
*1070 net64
*1071 net65
*1072 net66
*1073 net67
*1074 net68
*1075 net69
*1076 net7
*1077 net70
*1078 net71
*1079 net72
*1080 net73
*1081 net74
*1082 net75
*1083 net76
*1084 net77
*1085 net78
*1086 net79
*1087 net8
*1088 net80
*1089 net81
*1090 net82
*1091 net83
*1092 net84
*1093 net85
*1094 net86
*1095 net87
*1096 net88
*1097 net89
*1098 net9
*1099 net90
*1100 net91
*1101 net92
*1102 net93
*1103 net94
*1104 net95
*1105 net96
*1106 net97
*1107 net98
*1108 net99
*1109 tiny_shader_top_inst\.capture
*1110 tiny_shader_top_inst\.counter_h\[0\]
*1111 tiny_shader_top_inst\.counter_h\[10\]
*1112 tiny_shader_top_inst\.counter_h\[1\]
*1113 tiny_shader_top_inst\.counter_h\[2\]
*1114 tiny_shader_top_inst\.counter_h\[3\]
*1115 tiny_shader_top_inst\.counter_h\[4\]
*1116 tiny_shader_top_inst\.counter_h\[5\]
*1117 tiny_shader_top_inst\.counter_h\[6\]
*1118 tiny_shader_top_inst\.counter_h\[7\]
*1119 tiny_shader_top_inst\.counter_h\[8\]
*1120 tiny_shader_top_inst\.counter_h\[9\]
*1121 tiny_shader_top_inst\.counter_v\[0\]
*1122 tiny_shader_top_inst\.counter_v\[10\]
*1123 tiny_shader_top_inst\.counter_v\[1\]
*1124 tiny_shader_top_inst\.counter_v\[2\]
*1125 tiny_shader_top_inst\.counter_v\[3\]
*1126 tiny_shader_top_inst\.counter_v\[4\]
*1127 tiny_shader_top_inst\.counter_v\[5\]
*1128 tiny_shader_top_inst\.counter_v\[6\]
*1129 tiny_shader_top_inst\.counter_v\[7\]
*1130 tiny_shader_top_inst\.counter_v\[8\]
*1131 tiny_shader_top_inst\.counter_v\[9\]
*1132 tiny_shader_top_inst\.cur_time\[0\]
*1133 tiny_shader_top_inst\.cur_time\[1\]
*1134 tiny_shader_top_inst\.cur_time\[2\]
*1135 tiny_shader_top_inst\.cur_time\[3\]
*1136 tiny_shader_top_inst\.cur_time\[4\]
*1137 tiny_shader_top_inst\.cur_time\[5\]
*1138 tiny_shader_top_inst\.cur_time\[6\]
*1139 tiny_shader_top_inst\.cur_time\[7\]
*1140 tiny_shader_top_inst\.cur_time\[8\]
*1141 tiny_shader_top_inst\.hsync
*1142 tiny_shader_top_inst\.hsync_o
*1143 tiny_shader_top_inst\.instr\[0\]
*1144 tiny_shader_top_inst\.instr\[1\]
*1145 tiny_shader_top_inst\.instr\[2\]
*1146 tiny_shader_top_inst\.instr\[3\]
*1147 tiny_shader_top_inst\.instr\[4\]
*1148 tiny_shader_top_inst\.instr\[5\]
*1149 tiny_shader_top_inst\.instr\[6\]
*1150 tiny_shader_top_inst\.instr\[7\]
*1151 tiny_shader_top_inst\.memory_instr\[0\]
*1152 tiny_shader_top_inst\.memory_instr\[1\]
*1153 tiny_shader_top_inst\.memory_instr\[2\]
*1154 tiny_shader_top_inst\.memory_instr\[3\]
*1155 tiny_shader_top_inst\.memory_instr\[4\]
*1156 tiny_shader_top_inst\.memory_instr\[5\]
*1157 tiny_shader_top_inst\.memory_instr\[6\]
*1158 tiny_shader_top_inst\.memory_instr\[7\]
*1159 tiny_shader_top_inst\.memory_load
*1160 tiny_shader_top_inst\.next_frame
*1161 tiny_shader_top_inst\.next_frame_o
*1162 tiny_shader_top_inst\.next_vertical
*1163 tiny_shader_top_inst\.next_vertical_o
*1164 tiny_shader_top_inst\.rgb_o\[0\]
*1165 tiny_shader_top_inst\.rgb_o\[1\]
*1166 tiny_shader_top_inst\.rgb_o\[2\]
*1167 tiny_shader_top_inst\.rgb_o\[3\]
*1168 tiny_shader_top_inst\.rgb_o\[4\]
*1169 tiny_shader_top_inst\.rgb_o\[5\]
*1170 tiny_shader_top_inst\.rst_ni
*1171 tiny_shader_top_inst\.shader_execute_inst\.regs\[0\]\[0\]
*1172 tiny_shader_top_inst\.shader_execute_inst\.regs\[0\]\[1\]
*1173 tiny_shader_top_inst\.shader_execute_inst\.regs\[0\]\[2\]
*1174 tiny_shader_top_inst\.shader_execute_inst\.regs\[0\]\[3\]
*1175 tiny_shader_top_inst\.shader_execute_inst\.regs\[0\]\[4\]
*1176 tiny_shader_top_inst\.shader_execute_inst\.regs\[0\]\[5\]
*1177 tiny_shader_top_inst\.shader_execute_inst\.regs\[1\]\[0\]
*1178 tiny_shader_top_inst\.shader_execute_inst\.regs\[1\]\[1\]
*1179 tiny_shader_top_inst\.shader_execute_inst\.regs\[1\]\[2\]
*1180 tiny_shader_top_inst\.shader_execute_inst\.regs\[1\]\[3\]
*1181 tiny_shader_top_inst\.shader_execute_inst\.regs\[1\]\[4\]
*1182 tiny_shader_top_inst\.shader_execute_inst\.regs\[1\]\[5\]
*1183 tiny_shader_top_inst\.shader_execute_inst\.regs\[2\]\[0\]
*1184 tiny_shader_top_inst\.shader_execute_inst\.regs\[2\]\[1\]
*1185 tiny_shader_top_inst\.shader_execute_inst\.regs\[2\]\[2\]
*1186 tiny_shader_top_inst\.shader_execute_inst\.regs\[2\]\[3\]
*1187 tiny_shader_top_inst\.shader_execute_inst\.regs\[2\]\[4\]
*1188 tiny_shader_top_inst\.shader_execute_inst\.regs\[2\]\[5\]
*1189 tiny_shader_top_inst\.shader_execute_inst\.regs\[3\]\[0\]
*1190 tiny_shader_top_inst\.shader_execute_inst\.regs\[3\]\[1\]
*1191 tiny_shader_top_inst\.shader_execute_inst\.regs\[3\]\[2\]
*1192 tiny_shader_top_inst\.shader_execute_inst\.regs\[3\]\[3\]
*1193 tiny_shader_top_inst\.shader_execute_inst\.regs\[3\]\[4\]
*1194 tiny_shader_top_inst\.shader_execute_inst\.regs\[3\]\[5\]
*1195 tiny_shader_top_inst\.shader_execute_inst\.skip
*1196 tiny_shader_top_inst\.shader_execute_inst\.user_i\[0\]
*1197 tiny_shader_top_inst\.shader_execute_inst\.user_i\[1\]
*1198 tiny_shader_top_inst\.shader_execute_inst\.user_i\[2\]
*1199 tiny_shader_top_inst\.shader_execute_inst\.user_i\[3\]
*1200 tiny_shader_top_inst\.shader_execute_inst\.user_i\[4\]
*1201 tiny_shader_top_inst\.shader_execute_inst\.user_i\[5\]
*1202 tiny_shader_top_inst\.shader_execute_inst\.x_pos_i\[0\]
*1203 tiny_shader_top_inst\.shader_execute_inst\.x_pos_i\[1\]
*1204 tiny_shader_top_inst\.shader_execute_inst\.x_pos_i\[2\]
*1205 tiny_shader_top_inst\.shader_execute_inst\.x_pos_i\[3\]
*1206 tiny_shader_top_inst\.shader_execute_inst\.x_pos_i\[4\]
*1207 tiny_shader_top_inst\.shader_execute_inst\.x_pos_i\[5\]
*1208 tiny_shader_top_inst\.shader_execute_inst\.y_pos_i\[0\]
*1209 tiny_shader_top_inst\.shader_execute_inst\.y_pos_i\[1\]
*1210 tiny_shader_top_inst\.shader_execute_inst\.y_pos_i\[2\]
*1211 tiny_shader_top_inst\.shader_execute_inst\.y_pos_i\[3\]
*1212 tiny_shader_top_inst\.shader_execute_inst\.y_pos_i\[4\]
*1213 tiny_shader_top_inst\.shader_execute_inst\.y_pos_i\[5\]
*1214 tiny_shader_top_inst\.shader_memory_inst\.memory\[1\]\[0\]
*1215 tiny_shader_top_inst\.shader_memory_inst\.memory\[1\]\[1\]
*1216 tiny_shader_top_inst\.shader_memory_inst\.memory\[1\]\[2\]
*1217 tiny_shader_top_inst\.shader_memory_inst\.memory\[1\]\[3\]
*1218 tiny_shader_top_inst\.shader_memory_inst\.memory\[1\]\[4\]
*1219 tiny_shader_top_inst\.shader_memory_inst\.memory\[1\]\[5\]
*1220 tiny_shader_top_inst\.shader_memory_inst\.memory\[1\]\[6\]
*1221 tiny_shader_top_inst\.shader_memory_inst\.memory\[1\]\[7\]
*1222 tiny_shader_top_inst\.shader_memory_inst\.memory\[2\]\[0\]
*1223 tiny_shader_top_inst\.shader_memory_inst\.memory\[2\]\[1\]
*1224 tiny_shader_top_inst\.shader_memory_inst\.memory\[2\]\[2\]
*1225 tiny_shader_top_inst\.shader_memory_inst\.memory\[2\]\[3\]
*1226 tiny_shader_top_inst\.shader_memory_inst\.memory\[2\]\[4\]
*1227 tiny_shader_top_inst\.shader_memory_inst\.memory\[2\]\[5\]
*1228 tiny_shader_top_inst\.shader_memory_inst\.memory\[2\]\[6\]
*1229 tiny_shader_top_inst\.shader_memory_inst\.memory\[2\]\[7\]
*1230 tiny_shader_top_inst\.shader_memory_inst\.memory\[3\]\[0\]
*1231 tiny_shader_top_inst\.shader_memory_inst\.memory\[3\]\[1\]
*1232 tiny_shader_top_inst\.shader_memory_inst\.memory\[3\]\[2\]
*1233 tiny_shader_top_inst\.shader_memory_inst\.memory\[3\]\[3\]
*1234 tiny_shader_top_inst\.shader_memory_inst\.memory\[3\]\[4\]
*1235 tiny_shader_top_inst\.shader_memory_inst\.memory\[3\]\[5\]
*1236 tiny_shader_top_inst\.shader_memory_inst\.memory\[3\]\[6\]
*1237 tiny_shader_top_inst\.shader_memory_inst\.memory\[3\]\[7\]
*1238 tiny_shader_top_inst\.shader_memory_inst\.memory\[4\]\[0\]
*1239 tiny_shader_top_inst\.shader_memory_inst\.memory\[4\]\[1\]
*1240 tiny_shader_top_inst\.shader_memory_inst\.memory\[4\]\[2\]
*1241 tiny_shader_top_inst\.shader_memory_inst\.memory\[4\]\[3\]
*1242 tiny_shader_top_inst\.shader_memory_inst\.memory\[4\]\[4\]
*1243 tiny_shader_top_inst\.shader_memory_inst\.memory\[4\]\[5\]
*1244 tiny_shader_top_inst\.shader_memory_inst\.memory\[4\]\[6\]
*1245 tiny_shader_top_inst\.shader_memory_inst\.memory\[4\]\[7\]
*1246 tiny_shader_top_inst\.shader_memory_inst\.memory\[5\]\[0\]
*1247 tiny_shader_top_inst\.shader_memory_inst\.memory\[5\]\[1\]
*1248 tiny_shader_top_inst\.shader_memory_inst\.memory\[5\]\[2\]
*1249 tiny_shader_top_inst\.shader_memory_inst\.memory\[5\]\[3\]
*1250 tiny_shader_top_inst\.shader_memory_inst\.memory\[5\]\[4\]
*1251 tiny_shader_top_inst\.shader_memory_inst\.memory\[5\]\[5\]
*1252 tiny_shader_top_inst\.shader_memory_inst\.memory\[5\]\[6\]
*1253 tiny_shader_top_inst\.shader_memory_inst\.memory\[5\]\[7\]
*1254 tiny_shader_top_inst\.shader_memory_inst\.memory\[6\]\[0\]
*1255 tiny_shader_top_inst\.shader_memory_inst\.memory\[6\]\[1\]
*1256 tiny_shader_top_inst\.shader_memory_inst\.memory\[6\]\[2\]
*1257 tiny_shader_top_inst\.shader_memory_inst\.memory\[6\]\[3\]
*1258 tiny_shader_top_inst\.shader_memory_inst\.memory\[6\]\[4\]
*1259 tiny_shader_top_inst\.shader_memory_inst\.memory\[6\]\[5\]
*1260 tiny_shader_top_inst\.shader_memory_inst\.memory\[6\]\[6\]
*1261 tiny_shader_top_inst\.shader_memory_inst\.memory\[6\]\[7\]
*1262 tiny_shader_top_inst\.shader_memory_inst\.memory\[7\]\[0\]
*1263 tiny_shader_top_inst\.shader_memory_inst\.memory\[7\]\[1\]
*1264 tiny_shader_top_inst\.shader_memory_inst\.memory\[7\]\[2\]
*1265 tiny_shader_top_inst\.shader_memory_inst\.memory\[7\]\[3\]
*1266 tiny_shader_top_inst\.shader_memory_inst\.memory\[7\]\[4\]
*1267 tiny_shader_top_inst\.shader_memory_inst\.memory\[7\]\[5\]
*1268 tiny_shader_top_inst\.shader_memory_inst\.memory\[7\]\[6\]
*1269 tiny_shader_top_inst\.shader_memory_inst\.memory\[7\]\[7\]
*1270 tiny_shader_top_inst\.shader_memory_inst\.memory\[8\]\[0\]
*1271 tiny_shader_top_inst\.shader_memory_inst\.memory\[8\]\[1\]
*1272 tiny_shader_top_inst\.shader_memory_inst\.memory\[8\]\[2\]
*1273 tiny_shader_top_inst\.shader_memory_inst\.memory\[8\]\[3\]
*1274 tiny_shader_top_inst\.shader_memory_inst\.memory\[8\]\[4\]
*1275 tiny_shader_top_inst\.shader_memory_inst\.memory\[8\]\[5\]
*1276 tiny_shader_top_inst\.shader_memory_inst\.memory\[8\]\[6\]
*1277 tiny_shader_top_inst\.shader_memory_inst\.memory\[8\]\[7\]
*1278 tiny_shader_top_inst\.shader_memory_inst\.memory\[9\]\[0\]
*1279 tiny_shader_top_inst\.shader_memory_inst\.memory\[9\]\[1\]
*1280 tiny_shader_top_inst\.shader_memory_inst\.memory\[9\]\[2\]
*1281 tiny_shader_top_inst\.shader_memory_inst\.memory\[9\]\[3\]
*1282 tiny_shader_top_inst\.shader_memory_inst\.memory\[9\]\[4\]
*1283 tiny_shader_top_inst\.shader_memory_inst\.memory\[9\]\[5\]
*1284 tiny_shader_top_inst\.shader_memory_inst\.memory\[9\]\[6\]
*1285 tiny_shader_top_inst\.shader_memory_inst\.memory\[9\]\[7\]
*1286 tiny_shader_top_inst\.spi_miso_o
*1287 tiny_shader_top_inst\.spi_receiver_inst\.spi_cnt\[0\]
*1288 tiny_shader_top_inst\.spi_receiver_inst\.spi_cnt\[1\]
*1289 tiny_shader_top_inst\.spi_receiver_inst\.spi_cnt\[2\]
*1290 tiny_shader_top_inst\.spi_receiver_inst\.spi_cs_sync
*1291 tiny_shader_top_inst\.spi_receiver_inst\.spi_mosi_sync
*1292 tiny_shader_top_inst\.spi_receiver_inst\.spi_sclk_delayed
*1293 tiny_shader_top_inst\.spi_receiver_inst\.spi_sclk_sync
*1294 tiny_shader_top_inst\.spi_receiver_inst\.synchronizer_spi_cs\.pipe\[0\]
*1295 tiny_shader_top_inst\.spi_receiver_inst\.synchronizer_spi_mosi\.pipe\[0\]
*1296 tiny_shader_top_inst\.spi_receiver_inst\.synchronizer_spi_sclk\.pipe\[0\]
*1297 tiny_shader_top_inst\.time_dir
*1298 tiny_shader_top_inst\.timing_ver\.sync
*1299 tiny_shader_top_inst\.vsync_o
*1300 tiny_shader_top_inst\.x_subpos\[0\]
*1301 tiny_shader_top_inst\.x_subpos\[1\]
*1302 tiny_shader_top_inst\.x_subpos\[2\]
*1303 tiny_shader_top_inst\.x_subpos\[3\]
*1304 tiny_shader_top_inst\.y_subpos\[0\]
*1305 tiny_shader_top_inst\.y_subpos\[1\]
*1306 tiny_shader_top_inst\.y_subpos\[2\]
*1307 tiny_shader_top_inst\.y_subpos\[3\]
*1308 FILLER_0_0_108
*1309 FILLER_0_0_113
*1310 FILLER_0_0_125
*1311 FILLER_0_0_137
*1312 FILLER_0_0_141
*1313 FILLER_0_0_15
*1314 FILLER_0_0_152
*1315 FILLER_0_0_163
*1316 FILLER_0_0_169
*1317 FILLER_0_0_173
*1318 FILLER_0_0_194
*1319 FILLER_0_0_197
*1320 FILLER_0_0_201
*1321 FILLER_0_0_222
*1322 FILLER_0_0_228
*1323 FILLER_0_0_250
*1324 FILLER_0_0_262
*1325 FILLER_0_0_27
*1326 FILLER_0_0_29
*1327 FILLER_0_0_3
*1328 FILLER_0_0_317
*1329 FILLER_0_0_41
*1330 FILLER_0_0_53
*1331 FILLER_0_0_57
*1332 FILLER_0_0_69
*1333 FILLER_0_0_80
*1334 FILLER_0_10_106
*1335 FILLER_0_10_125
*1336 FILLER_0_10_138
*1337 FILLER_0_10_145
*1338 FILLER_0_10_161
*1339 FILLER_0_10_171
*1340 FILLER_0_10_177
*1341 FILLER_0_10_194
*1342 FILLER_0_10_211
*1343 FILLER_0_10_234
*1344 FILLER_0_10_24
*1345 FILLER_0_10_253
*1346 FILLER_0_10_3
*1347 FILLER_0_10_306
*1348 FILLER_0_10_49
*1349 FILLER_0_10_57
*1350 FILLER_0_10_65
*1351 FILLER_0_10_82
*1352 FILLER_0_10_85
*1353 FILLER_0_11_103
*1354 FILLER_0_11_132
*1355 FILLER_0_11_155
*1356 FILLER_0_11_166
*1357 FILLER_0_11_172
*1358 FILLER_0_11_192
*1359 FILLER_0_11_215
*1360 FILLER_0_11_334
*1361 FILLER_0_11_40
*1362 FILLER_0_11_53
*1363 FILLER_0_12_121
*1364 FILLER_0_12_141
*1365 FILLER_0_12_159
*1366 FILLER_0_12_173
*1367 FILLER_0_12_181
*1368 FILLER_0_12_19
*1369 FILLER_0_12_195
*1370 FILLER_0_12_197
*1371 FILLER_0_12_231
*1372 FILLER_0_12_262
*1373 FILLER_0_12_284
*1374 FILLER_0_12_3
*1375 FILLER_0_12_306
*1376 FILLER_0_12_312
*1377 FILLER_0_12_49
*1378 FILLER_0_12_55
*1379 FILLER_0_12_78
*1380 FILLER_0_12_82
*1381 FILLER_0_12_88
*1382 FILLER_0_12_9
*1383 FILLER_0_12_98
*1384 FILLER_0_13_106
*1385 FILLER_0_13_11
*1386 FILLER_0_13_121
*1387 FILLER_0_13_129
*1388 FILLER_0_13_181
*1389 FILLER_0_13_191
*1390 FILLER_0_13_197
*1391 FILLER_0_13_212
*1392 FILLER_0_13_25
*1393 FILLER_0_13_269
*1394 FILLER_0_13_284
*1395 FILLER_0_13_3
*1396 FILLER_0_13_46
*1397 FILLER_0_13_53
*1398 FILLER_0_13_81
*1399 FILLER_0_14_100
*1400 FILLER_0_14_114
*1401 FILLER_0_14_118
*1402 FILLER_0_14_136
*1403 FILLER_0_14_141
*1404 FILLER_0_14_149
*1405 FILLER_0_14_156
*1406 FILLER_0_14_162
*1407 FILLER_0_14_167
*1408 FILLER_0_14_179
*1409 FILLER_0_14_187
*1410 FILLER_0_14_195
*1411 FILLER_0_14_208
*1412 FILLER_0_14_242
*1413 FILLER_0_14_268
*1414 FILLER_0_14_27
*1415 FILLER_0_14_289
*1416 FILLER_0_14_29
*1417 FILLER_0_14_3
*1418 FILLER_0_14_307
*1419 FILLER_0_14_309
*1420 FILLER_0_14_334
*1421 FILLER_0_14_37
*1422 FILLER_0_14_49
*1423 FILLER_0_14_60
*1424 FILLER_0_14_70
*1425 FILLER_0_14_75
*1426 FILLER_0_14_83
*1427 FILLER_0_14_85
*1428 FILLER_0_14_93
*1429 FILLER_0_15_113
*1430 FILLER_0_15_121
*1431 FILLER_0_15_136
*1432 FILLER_0_15_167
*1433 FILLER_0_15_169
*1434 FILLER_0_15_178
*1435 FILLER_0_15_188
*1436 FILLER_0_15_19
*1437 FILLER_0_15_197
*1438 FILLER_0_15_207
*1439 FILLER_0_15_223
*1440 FILLER_0_15_3
*1441 FILLER_0_15_37
*1442 FILLER_0_15_48
*1443 FILLER_0_15_65
*1444 FILLER_0_15_82
*1445 FILLER_0_16_117
*1446 FILLER_0_16_125
*1447 FILLER_0_16_136
*1448 FILLER_0_16_148
*1449 FILLER_0_16_156
*1450 FILLER_0_16_16
*1451 FILLER_0_16_177
*1452 FILLER_0_16_183
*1453 FILLER_0_16_194
*1454 FILLER_0_16_200
*1455 FILLER_0_16_206
*1456 FILLER_0_16_26
*1457 FILLER_0_16_3
*1458 FILLER_0_16_304
*1459 FILLER_0_16_32
*1460 FILLER_0_16_38
*1461 FILLER_0_16_55
*1462 FILLER_0_16_64
*1463 FILLER_0_16_7
*1464 FILLER_0_16_82
*1465 FILLER_0_16_85
*1466 FILLER_0_16_95
*1467 FILLER_0_17_101
*1468 FILLER_0_17_11
*1469 FILLER_0_17_121
*1470 FILLER_0_17_142
*1471 FILLER_0_17_146
*1472 FILLER_0_17_160
*1473 FILLER_0_17_164
*1474 FILLER_0_17_195
*1475 FILLER_0_17_207
*1476 FILLER_0_17_26
*1477 FILLER_0_17_3
*1478 FILLER_0_17_301
*1479 FILLER_0_17_32
*1480 FILLER_0_17_44
*1481 FILLER_0_17_55
*1482 FILLER_0_17_62
*1483 FILLER_0_17_70
*1484 FILLER_0_18_100
*1485 FILLER_0_18_123
*1486 FILLER_0_18_127
*1487 FILLER_0_18_131
*1488 FILLER_0_18_135
*1489 FILLER_0_18_139
*1490 FILLER_0_18_141
*1491 FILLER_0_18_152
*1492 FILLER_0_18_181
*1493 FILLER_0_18_194
*1494 FILLER_0_18_20
*1495 FILLER_0_18_247
*1496 FILLER_0_18_251
*1497 FILLER_0_18_3
*1498 FILLER_0_18_305
*1499 FILLER_0_18_33
*1500 FILLER_0_18_48
*1501 FILLER_0_18_65
*1502 FILLER_0_18_9
*1503 FILLER_0_18_91
*1504 FILLER_0_19_120
*1505 FILLER_0_19_132
*1506 FILLER_0_19_151
*1507 FILLER_0_19_167
*1508 FILLER_0_19_189
*1509 FILLER_0_19_194
*1510 FILLER_0_19_203
*1511 FILLER_0_19_215
*1512 FILLER_0_19_24
*1513 FILLER_0_19_276
*1514 FILLER_0_19_28
*1515 FILLER_0_19_330
*1516 FILLER_0_19_38
*1517 FILLER_0_19_49
*1518 FILLER_0_19_60
*1519 FILLER_0_19_84
*1520 FILLER_0_19_88
*1521 FILLER_0_1_125
*1522 FILLER_0_1_137
*1523 FILLER_0_1_141
*1524 FILLER_0_1_15
*1525 FILLER_0_1_166
*1526 FILLER_0_1_169
*1527 FILLER_0_1_223
*1528 FILLER_0_1_237
*1529 FILLER_0_1_27
*1530 FILLER_0_1_278
*1531 FILLER_0_1_3
*1532 FILLER_0_1_325
*1533 FILLER_0_1_39
*1534 FILLER_0_1_51
*1535 FILLER_0_1_55
*1536 FILLER_0_1_57
*1537 FILLER_0_1_63
*1538 FILLER_0_1_87
*1539 FILLER_0_20_101
*1540 FILLER_0_20_130
*1541 FILLER_0_20_138
*1542 FILLER_0_20_180
*1543 FILLER_0_20_195
*1544 FILLER_0_20_197
*1545 FILLER_0_20_253