*SPEF "ieee 1481-1999"
*DESIGN "tt_um_wuehr1999_servotester"
*DATE "20:49:32 Sunday April 14, 2024"
*VENDOR "The OpenROAD Project"
*PROGRAM "OpenROAD"
*VERSION "0889970d1790a2617e69f253221b8bd7626e51dc"
*DESIGN_FLOW "NAME_SCOPE LOCAL" "PIN_CAP NONE"
*DIVIDER /
*DELIMITER :
*BUS_DELIMITER []
*T_UNIT 1 NS
*C_UNIT 1 PF
*R_UNIT 1 OHM
*L_UNIT 1 HENRY

*NAME_MAP
*3 clk
*4 ena
*5 rst_n
*6 ui_in[0]
*7 ui_in[1]
*8 ui_in[2]
*9 ui_in[3]
*10 ui_in[4]
*11 ui_in[5]
*12 ui_in[6]
*13 ui_in[7]
*14 uio_in[0]
*15 uio_in[1]
*16 uio_in[2]
*17 uio_in[3]
*18 uio_in[4]
*19 uio_in[5]
*20 uio_in[6]
*21 uio_in[7]
*22 net18
*23 net19
*24 net20
*25 net21
*26 net22
*27 net23
*28 net24
*29 net25
*30 net11
*31 net12
*32 net13
*33 net14
*34 net15
*35 net16
*36 net17
*37 uio_out[7]
*38 uo_out[0]
*39 uo_out[1]
*40 uo_out[2]
*41 uo_out[3]
*42 uo_out[4]
*43 uo_out[5]
*44 uo_out[6]
*45 uo_out[7]
*46 _000_
*47 _001_
*48 _002_
*49 _003_
*50 _004_
*51 _005_
*52 _006_
*53 _007_
*54 _008_
*55 _009_
*56 _010_
*57 _011_
*58 _012_
*59 _013_
*60 _014_
*61 _015_
*62 _016_
*63 _017_
*64 _018_
*65 _019_
*66 _020_
*67 _021_
*68 _022_
*69 _023_
*70 _024_
*71 _025_
*72 _026_
*73 _027_
*74 _028_
*75 _029_
*76 _030_
*77 _031_
*78 _032_
*79 _033_
*80 _034_
*81 _035_
*82 _036_
*83 _037_
*84 _038_
*85 _039_
*86 _040_
*87 _041_
*88 _042_
*89 _043_
*90 _044_
*91 _045_
*92 _046_
*93 _047_
*94 _048_
*95 _049_
*96 _050_
*97 _051_
*98 _052_
*99 _053_
*100 _054_
*101 _055_
*102 _056_
*103 _057_
*104 _058_
*105 _059_
*106 _060_
*107 _061_
*108 _062_
*109 _063_
*110 _064_
*111 _065_
*112 _066_
*113 _067_
*114 _068_
*115 _069_
*116 _070_
*117 _071_
*118 _072_
*119 _073_
*120 _074_
*121 _075_
*122 _076_
*123 _077_
*124 _078_
*125 _079_
*126 _080_
*127 _081_
*128 _082_
*129 _083_
*130 _084_
*131 _085_
*132 _086_
*133 _087_
*134 _088_
*135 _089_
*136 _090_
*137 _091_
*138 _092_
*139 _093_
*140 _094_
*141 _095_
*142 _096_
*143 _097_
*144 _098_
*145 _099_
*146 _100_
*147 _101_
*148 _102_
*149 _103_
*150 _104_
*151 _105_
*152 _106_
*153 _107_
*154 _108_
*155 _109_
*156 _110_
*157 _111_
*158 _112_
*159 _113_
*160 _114_
*161 _115_
*162 _116_
*163 _117_
*164 _118_
*165 _119_
*166 _120_
*167 _121_
*168 _122_
*169 _123_
*170 _124_
*171 _125_
*172 _126_
*173 _127_
*174 _128_
*175 _129_
*176 _130_
*177 _131_
*178 _132_
*179 _133_
*180 _134_
*181 _135_
*182 _136_
*183 _137_
*184 _138_
*185 _139_
*186 _140_
*187 _141_
*188 _142_
*189 _143_
*190 _144_
*191 _145_
*192 _146_
*193 _147_
*194 _148_
*195 _149_
*196 _150_
*197 _151_
*198 _152_
*199 _153_
*200 _154_
*201 _155_
*202 _156_
*203 _157_
*204 _158_
*205 _159_
*206 _160_
*207 _161_
*208 _162_
*209 _163_
*210 _164_
*211 _165_
*212 _166_
*213 _167_
*214 _168_
*215 _169_
*216 _170_
*217 _171_
*218 _172_
*219 _173_
*220 _174_
*221 _175_
*222 _176_
*223 _177_
*224 _178_
*225 _179_
*226 _180_
*227 _181_
*228 _182_
*229 _183_
*230 _184_
*231 _185_
*232 _186_
*233 _187_
*234 _188_
*235 _189_
*236 _190_
*237 _191_
*238 _192_
*239 _193_
*240 _194_
*241 _195_
*242 _196_
*243 _197_
*244 _198_
*245 _199_
*246 _200_
*247 _201_
*248 _202_
*249 _203_
*250 _204_
*251 _205_
*252 _206_
*253 _207_
*254 _208_
*255 _209_
*256 _210_
*257 _211_
*258 clknet_0_clk
*259 clknet_2_0__leaf_clk
*260 clknet_2_1__leaf_clk
*261 clknet_2_2__leaf_clk
*262 clknet_2_3__leaf_clk
*263 counter\[0\]
*264 counter\[10\]
*265 counter\[11\]
*266 counter\[12\]
*267 counter\[13\]
*268 counter\[14\]
*269 counter\[15\]
*270 counter\[16\]
*271 counter\[17\]
*272 counter\[18\]
*273 counter\[19\]
*274 counter\[1\]
*275 counter\[20\]
*276 counter\[2\]
*277 counter\[3\]
*278 counter\[4\]
*279 counter\[5\]
*280 counter\[6\]
*281 counter\[7\]
*282 counter\[8\]
*283 counter\[9\]
*284 net1
*285 net10
*286 net2
*287 net26
*288 net27
*289 net28
*290 net29
*291 net3
*292 net30
*293 net31
*294 net32
*295 net33
*296 net34
*297 net35
*298 net36
*299 net37
*300 net38
*301 net39
*302 net4
*303 net40
*304 net41
*305 net42
*306 net43
*307 net44
*308 net45
*309 net46
*310 net47
*311 net48
*312 net49
*313 net5
*314 net50
*315 net51
*316 net52
*317 net53
*318 net54
*319 net55
*320 net56
*321 net57
*322 net58
*323 net59
*324 net6
*325 net60
*326 net61
*327 net62
*328 net63
*329 net64
*330 net65
*331 net66
*332 net67
*333 net7
*334 net8
*335 net9
*336 signal\[0\]
*337 signal\[1\]
*338 signal\[2\]
*339 signal\[3\]
*340 signal\[4\]
*341 signal\[5\]
*342 signal\[6\]
*343 signal\[7\]
*344 signal_counter\[0\]
*345 signal_counter\[10\]
*346 signal_counter\[11\]
*347 signal_counter\[12\]
*348 signal_counter\[13\]
*349 signal_counter\[14\]
*350 signal_counter\[15\]
*351 signal_counter\[16\]
*352 signal_counter\[17\]
*353 signal_counter\[18\]
*354 signal_counter\[19\]
*355 signal_counter\[1\]
*356 signal_counter\[20\]
*357 signal_counter\[2\]
*358 signal_counter\[3\]
*359 signal_counter\[4\]
*360 signal_counter\[5\]
*361 signal_counter\[6\]
*362 signal_counter\[7\]
*363 signal_counter\[8\]
*364 signal_counter\[9\]
*365 FILLER_0_0_109
*366 FILLER_0_0_113
*367 FILLER_0_0_125
*368 FILLER_0_0_137
*369 FILLER_0_0_141
*370 FILLER_0_0_15
*371 FILLER_0_0_153
*372 FILLER_0_0_165
*373 FILLER_0_0_169
*374 FILLER_0_0_181
*375 FILLER_0_0_193
*376 FILLER_0_0_197
*377 FILLER_0_0_209
*378 FILLER_0_0_221
*379 FILLER_0_0_225
*380 FILLER_0_0_237
*381 FILLER_0_0_249
*382 FILLER_0_0_253
*383 FILLER_0_0_265
*384 FILLER_0_0_27
*385 FILLER_0_0_277
*386 FILLER_0_0_281
*387 FILLER_0_0_29
*388 FILLER_0_0_293
*389 FILLER_0_0_3
*390 FILLER_0_0_305
*391 FILLER_0_0_309
*392 FILLER_0_0_321
*393 FILLER_0_0_333
*394 FILLER_0_0_41
*395 FILLER_0_0_53
*396 FILLER_0_0_57
*397 FILLER_0_0_69
*398 FILLER_0_0_81
*399 FILLER_0_0_85
*400 FILLER_0_0_97
*401 FILLER_0_10_109
*402 FILLER_0_10_121
*403 FILLER_0_10_133
*404 FILLER_0_10_139
*405 FILLER_0_10_141
*406 FILLER_0_10_15
*407 FILLER_0_10_153
*408 FILLER_0_10_165
*409 FILLER_0_10_177
*410 FILLER_0_10_189
*411 FILLER_0_10_195
*412 FILLER_0_10_197
*413 FILLER_0_10_209
*414 FILLER_0_10_221
*415 FILLER_0_10_233
*416 FILLER_0_10_245
*417 FILLER_0_10_251
*418 FILLER_0_10_253
*419 FILLER_0_10_265
*420 FILLER_0_10_27
*421 FILLER_0_10_277
*422 FILLER_0_10_289
*423 FILLER_0_10_29
*424 FILLER_0_10_3
*425 FILLER_0_10_301
*426 FILLER_0_10_307
*427 FILLER_0_10_309
*428 FILLER_0_10_321
*429 FILLER_0_10_333
*430 FILLER_0_10_41
*431 FILLER_0_10_53
*432 FILLER_0_10_65
*433 FILLER_0_10_77
*434 FILLER_0_10_83
*435 FILLER_0_10_85
*436 FILLER_0_10_97
*437 FILLER_0_11_105
*438 FILLER_0_11_111
*439 FILLER_0_11_113
*440 FILLER_0_11_125
*441 FILLER_0_11_137
*442 FILLER_0_11_149
*443 FILLER_0_11_15
*444 FILLER_0_11_161
*445 FILLER_0_11_167
*446 FILLER_0_11_169
*447 FILLER_0_11_181
*448 FILLER_0_11_193
*449 FILLER_0_11_205
*450 FILLER_0_11_217
*451 FILLER_0_11_223
*452 FILLER_0_11_225
*453 FILLER_0_11_237
*454 FILLER_0_11_249
*455 FILLER_0_11_261
*456 FILLER_0_11_27
*457 FILLER_0_11_273
*458 FILLER_0_11_279
*459 FILLER_0_11_281
*460 FILLER_0_11_293
*461 FILLER_0_11_3
*462 FILLER_0_11_305
*463 FILLER_0_11_317
*464 FILLER_0_11_329
*465 FILLER_0_11_39
*466 FILLER_0_11_51
*467 FILLER_0_11_55
*468 FILLER_0_11_57
*469 FILLER_0_11_69
*470 FILLER_0_11_81
*471 FILLER_0_11_93
*472 FILLER_0_12_109
*473 FILLER_0_12_121
*474 FILLER_0_12_133
*475 FILLER_0_12_139
*476 FILLER_0_12_141
*477 FILLER_0_12_15
*478 FILLER_0_12_153
*479 FILLER_0_12_165
*480 FILLER_0_12_177
*481 FILLER_0_12_189
*482 FILLER_0_12_195
*483 FILLER_0_12_197
*484 FILLER_0_12_209
*485 FILLER_0_12_221
*486 FILLER_0_12_233
*487 FILLER_0_12_245
*488 FILLER_0_12_251
*489 FILLER_0_12_253
*490 FILLER_0_12_265
*491 FILLER_0_12_27
*492 FILLER_0_12_277
*493 FILLER_0_12_289
*494 FILLER_0_12_29
*495 FILLER_0_12_3
*496 FILLER_0_12_301
*497 FILLER_0_12_307
*498 FILLER_0_12_309
*499 FILLER_0_12_321
*500 FILLER_0_12_333
*501 FILLER_0_12_41
*502 FILLER_0_12_53
*503 FILLER_0_12_65
*504 FILLER_0_12_77
*505 FILLER_0_12_83
*506 FILLER_0_12_85
*507 FILLER_0_12_97
*508 FILLER_0_13_105
*509 FILLER_0_13_111
*510 FILLER_0_13_113
*511 FILLER_0_13_125
*512 FILLER_0_13_137
*513 FILLER_0_13_149
*514 FILLER_0_13_15
*515 FILLER_0_13_161
*516 FILLER_0_13_167
*517 FILLER_0_13_169
*518 FILLER_0_13_181
*519 FILLER_0_13_193
*520 FILLER_0_13_205
*521 FILLER_0_13_217
*522 FILLER_0_13_223
*523 FILLER_0_13_225
*524 FILLER_0_13_237
*525 FILLER_0_13_249
*526 FILLER_0_13_261
*527 FILLER_0_13_27
*528 FILLER_0_13_273
*529 FILLER_0_13_279
*530 FILLER_0_13_281
*531 FILLER_0_13_293
*532 FILLER_0_13_3
*533 FILLER_0_13_305
*534 FILLER_0_13_317
*535 FILLER_0_13_329
*536 FILLER_0_13_39
*537 FILLER_0_13_51
*538 FILLER_0_13_55
*539 FILLER_0_13_57
*540 FILLER_0_13_69
*541 FILLER_0_13_81
*542 FILLER_0_13_93
*543 FILLER_0_14_109
*544 FILLER_0_14_121
*545 FILLER_0_14_133
*546 FILLER_0_14_139
*547 FILLER_0_14_141
*548 FILLER_0_14_15
*549 FILLER_0_14_153
*550 FILLER_0_14_165
*551 FILLER_0_14_177
*552 FILLER_0_14_189
*553 FILLER_0_14_195
*554 FILLER_0_14_197
*555 FILLER_0_14_209
*556 FILLER_0_14_221
*557 FILLER_0_14_233
*558 FILLER_0_14_245
*559 FILLER_0_14_251
*560 FILLER_0_14_253
*561 FILLER_0_14_265
*562 FILLER_0_14_27
*563 FILLER_0_14_277
*564 FILLER_0_14_289
*565 FILLER_0_14_29
*566 FILLER_0_14_3
*567 FILLER_0_14_301
*568 FILLER_0_14_307
*569 FILLER_0_14_309
*570 FILLER_0_14_321
*571 FILLER_0_14_333
*572 FILLER_0_14_41
*573 FILLER_0_14_53
*574 FILLER_0_14_65
*575 FILLER_0_14_77
*576 FILLER_0_14_83
*577 FILLER_0_14_85
*578 FILLER_0_14_97
*579 FILLER_0_15_105
*580 FILLER_0_15_111
*581 FILLER_0_15_113
*582 FILLER_0_15_125
*583 FILLER_0_15_137
*584 FILLER_0_15_149
*585 FILLER_0_15_15
*586 FILLER_0_15_161
*587 FILLER_0_15_167
*588 FILLER_0_15_169
*589 FILLER_0_15_181
*590 FILLER_0_15_193
*591 FILLER_0_15_205
*592 FILLER_0_15_217
*593 FILLER_0_15_223
*594 FILLER_0_15_225
*595 FILLER_0_15_237
*596 FILLER_0_15_249
*597 FILLER_0_15_261
*598 FILLER_0_15_27
*599 FILLER_0_15_273
*600 FILLER_0_15_279
*601 FILLER_0_15_281
*602 FILLER_0_15_293
*603 FILLER_0_15_3
*604 FILLER_0_15_305
*605 FILLER_0_15_317
*606 FILLER_0_15_329
*607 FILLER_0_15_39
*608 FILLER_0_15_51
*609 FILLER_0_15_55
*610 FILLER_0_15_57
*611 FILLER_0_15_69
*612 FILLER_0_15_81
*613 FILLER_0_15_93
*614 FILLER_0_16_109
*615 FILLER_0_16_121
*616 FILLER_0_16_133
*617 FILLER_0_16_139
*618 FILLER_0_16_141
*619 FILLER_0_16_15
*620 FILLER_0_16_153
*621 FILLER_0_16_165
*622 FILLER_0_16_177
*623 FILLER_0_16_189
*624 FILLER_0_16_195
*625 FILLER_0_16_197
*626 FILLER_0_16_209
*627 FILLER_0_16_221
*628 FILLER_0_16_233
*629 FILLER_0_16_245
*630 FILLER_0_16_251
*631 FILLER_0_16_253
*632 FILLER_0_16_265
*633 FILLER_0_16_27
*634 FILLER_0_16_277
*635 FILLER_0_16_289
*636 FILLER_0_16_29
*637 FILLER_0_16_3
*638 FILLER_0_16_301
*639 FILLER_0_16_307
*640 FILLER_0_16_309
*641 FILLER_0_16_321
*642 FILLER_0_16_333
*643 FILLER_0_16_41
*644 FILLER_0_16_53
*645 FILLER_0_16_65
*646 FILLER_0_16_77
*647 FILLER_0_16_83
*648 FILLER_0_16_85
*649 FILLER_0_16_97
*650 FILLER_0_17_105
*651 FILLER_0_17_111
*652 FILLER_0_17_113
*653 FILLER_0_17_125
*654 FILLER_0_17_137
*655 FILLER_0_17_149
*656 FILLER_0_17_15
*657 FILLER_0_17_161
*658 FILLER_0_17_167
*659 FILLER_0_17_169
*660 FILLER_0_17_181
*661 FILLER_0_17_193
*662 FILLER_0_17_205
*663 FILLER_0_17_217
*664 FILLER_0_17_223
*665 FILLER_0_17_225
*666 FILLER_0_17_237
*667 FILLER_0_17_249
*668 FILLER_0_17_261
*669 FILLER_0_17_27
*670 FILLER_0_17_273
*671 FILLER_0_17_279
*672 FILLER_0_17_281
*673 FILLER_0_17_293
*674 FILLER_0_17_3
*675 FILLER_0_17_305
*676 FILLER_0_17_317
*677 FILLER_0_17_329
*678 FILLER_0_17_39
*679 FILLER_0_17_51
*680 FILLER_0_17_55
*681 FILLER_0_17_57
*682 FILLER_0_17_69
*683 FILLER_0_17_81
*684 FILLER_0_17_93
*685 FILLER_0_18_109
*686 FILLER_0_18_121
*687 FILLER_0_18_133
*688 FILLER_0_18_139
*689 FILLER_0_18_141
*690 FILLER_0_18_15
*691 FILLER_0_18_153
*692 FILLER_0_18_165
*693 FILLER_0_18_177
*694 FILLER_0_18_189
*695 FILLER_0_18_195
*696 FILLER_0_18_197
*697 FILLER_0_18_209
*698 FILLER_0_18_221
*699 FILLER_0_18_233
*700 FILLER_0_18_245
*701 FILLER_0_18_251
*702 FILLER_0_18_253
*703 FILLER_0_18_265
*704 FILLER_0_18_27
*705 FILLER_0_18_277
*706 FILLER_0_18_289
*707 FILLER_0_18_29
*708 FILLER_0_18_3
*709 FILLER_0_18_301
*710 FILLER_0_18_307
*711 FILLER_0_18_309
*712 FILLER_0_18_321
*713 FILLER_0_18_333
*714 FILLER_0_18_41
*715 FILLER_0_18_53
*716 FILLER_0_18_65
*717 FILLER_0_18_77
*718 FILLER_0_18_83
*719 FILLER_0_18_85
*720 FILLER_0_18_97
*721 FILLER_0_19_105
*722 FILLER_0_19_111
*723 FILLER_0_19_113
*724 FILLER_0_19_125
*725 FILLER_0_19_137
*726 FILLER_0_19_149
*727 FILLER_0_19_15
*728 FILLER_0_19_161
*729 FILLER_0_19_167
*730 FILLER_0_19_169
*731 FILLER_0_19_181
*732 FILLER_0_19_193
*733 FILLER_0_19_205
*734 FILLER_0_19_217
*735 FILLER_0_19_223
*736 FILLER_0_19_225
*737 FILLER_0_19_237
*738 FILLER_0_19_249
*739 FILLER_0_19_261
*740 FILLER_0_19_27
*741 FILLER_0_19_273
*742 FILLER_0_19_279
*743 FILLER_0_19_281
*744 FILLER_0_19_293
*745 FILLER_0_19_3
*746 FILLER_0_19_305
*747 FILLER_0_19_317
*748 FILLER_0_19_329
*749 FILLER_0_19_39
*750 FILLER_0_19_51
*751 FILLER_0_19_55
*752 FILLER_0_19_57
*753 FILLER_0_19_69
*754 FILLER_0_19_81
*755 FILLER_0_19_93
*756 FILLER_0_1_105
*757 FILLER_0_1_111
*758 FILLER_0_1_113
*759 FILLER_0_1_125
*760 FILLER_0_1_137
*761 FILLER_0_1_149
*762 FILLER_0_1_15
*763 FILLER_0_1_161
*764 FILLER_0_1_167
*765 FILLER_0_1_169
*766 FILLER_0_1_181
*767 FILLER_0_1_193
*768 FILLER_0_1_205
*769 FILLER_0_1_217
*770 FILLER_0_1_223
*771 FILLER_0_1_225
*772 FILLER_0_1_237
*773 FILLER_0_1_249
*774 FILLER_0_1_261
*775 FILLER_0_1_27
*776 FILLER_0_1_273
*777 FILLER_0_1_279
*778 FILLER_0_1_281
*779 FILLER_0_1_293
*780 FILLER_0_1_3
*781 FILLER_0_1_305
*782 FILLER_0_1_317
*783 FILLER_0_1_329
*784 FILLER_0_1_39
*785 FILLER_0_1_51
*786 FILLER_0_1_55
*787 FILLER_0_1_57
*788 FILLER_0_1_69
*789 FILLER_0_1_81
*790 FILLER_0_1_93
*791 FILLER_0_20_109
*792 FILLER_0_20_121
*793 FILLER_0_20_133
*794 FILLER_0_20_139
*795 FILLER_0_20_141
*796 FILLER_0_20_15
*797 FILLER_0_20_153
*798 FILLER_0_20_181
*799 FILLER_0_20_189
*800 FILLER_0_20_195
*801 FILLER_0_20_229
*802 FILLER_0_20_237
*803 FILLER_0_20_248
*804 FILLER_0_20_258
*805 FILLER_0_20_27
*806 FILLER_0_20_270
*807 FILLER_0_20_282
*808 FILLER_0_20_29
*809 FILLER_0_20_294
*810 FILLER_0_20_3
*811 FILLER_0_20_306
*812 FILLER_0_20_309
*813 FILLER_0_20_321
*814 FILLER_0_20_333
*815 FILLER_0_20_41
*816 FILLER_0_20_53
*817 FILLER_0_20_65
*818 FILLER_0_20_77
*819 FILLER_0_20_83
*820 FILLER_0_20_85
*821 FILLER_0_20_97
*822 FILLER_0_21_105
*823 FILLER_0_21_111
*824 FILLER_0_21_113
*825 FILLER_0_21_125
*826 FILLER_0_21_137
*827 FILLER_0_21_149
*828 FILLER_0_21_15
*829 FILLER_0_21_161
*830 FILLER_0_21_185
*831 FILLER_0_21_265
*832 FILLER_0_21_27
*833 FILLER_0_21_277
*834 FILLER_0_21_281
*835 FILLER_0_21_293
*836 FILLER_0_21_3
*837 FILLER_0_21_305
*838 FILLER_0_21_317
*839 FILLER_0_21_329
*840 FILLER_0_21_39
*841 FILLER_0_21_51
*842 FILLER_0_21_55
*843 FILLER_0_21_57
*844 FILLER_0_21_69
*845 FILLER_0_21_81
*846 FILLER_0_21_93
*847 FILLER_0_22_109
*848 FILLER_0_22_121
*849 FILLER_0_22_133
*850 FILLER_0_22_139
*851 FILLER_0_22_141
*852 FILLER_0_22_15
*853 FILLER_0_22_153
*854 FILLER_0_22_197
*855 FILLER_0_22_215
*856 FILLER_0_22_228
*857 FILLER_0_22_269
*858 FILLER_0_22_27
*859 FILLER_0_22_281
*860 FILLER_0_22_29
*861 FILLER_0_22_293
*862 FILLER_0_22_3
*863 FILLER_0_22_305
*864 FILLER_0_22_309
*865 FILLER_0_22_321
*866 FILLER_0_22_333
*867 FILLER_0_22_41
*868 FILLER_0_22_53
*869 FILLER_0_22_65
*870 FILLER_0_22_77
*871 FILLER_0_22_83
*872 FILLER_0_22_85
*873 FILLER_0_22_97
*874 FILLER_0_23_105
*875 FILLER_0_23_111
*876 FILLER_0_23_113
*877 FILLER_0_23_125
*878 FILLER_0_23_137
*879 FILLER_0_23_149
*880 FILLER_0_23_15
*881 FILLER_0_23_161
*882 FILLER_0_23_185
*883 FILLER_0_23_197
*884 FILLER_0_23_220
*885 FILLER_0_23_225
*886 FILLER_0_23_237
*887 FILLER_0_23_262
*888 FILLER_0_23_27
*889 FILLER_0_23_274
*890 FILLER_0_23_281
*891 FILLER_0_23_293
*892 FILLER_0_23_3
*893 FILLER_0_23_305
*894 FILLER_0_23_317
*895 FILLER_0_23_329
*896 FILLER_0_23_39
*897 FILLER_0_23_51
*898 FILLER_0_23_55
*899 FILLER_0_23_57
*900 FILLER_0_23_69
*901 FILLER_0_23_81
*902 FILLER_0_23_93
*903 FILLER_0_24_109
*904 FILLER_0_24_121
*905 FILLER_0_24_133
*906 FILLER_0_24_139
*907 FILLER_0_24_141
*908 FILLER_0_24_15
*909 FILLER_0_24_153
*910 FILLER_0_24_161
*911 FILLER_0_24_188
*912 FILLER_0_24_197
*913 FILLER_0_24_209
*914 FILLER_0_24_231
*915 FILLER_0_24_239
*916 FILLER_0_24_256
*917 FILLER_0_24_27
*918 FILLER_0_24_274
*919 FILLER_0_24_286
*920 FILLER_0_24_29
*921 FILLER_0_24_298
*922 FILLER_0_24_3
*923 FILLER_0_24_306
*924 FILLER_0_24_309
*925 FILLER_0_24_321
*926 FILLER_0_24_333
*927 FILLER_0_24_41
*928 FILLER_0_24_53
*929 FILLER_0_24_65
*930 FILLER_0_24_77
*931 FILLER_0_24_83
*932 FILLER_0_24_85
*933 FILLER_0_24_97
*934 FILLER_0_25_105
*935 FILLER_0_25_111
*936 FILLER_0_25_113
*937 FILLER_0_25_125
*938 FILLER_0_25_131
*939 FILLER_0_25_148
*940 FILLER_0_25_15
*941 FILLER_0_25_157
*942 FILLER_0_25_165
*943 FILLER_0_25_193
*944 FILLER_0_25_205
*945 FILLER_0_25_225
*946 FILLER_0_25_242
*947 FILLER_0_25_250
*948 FILLER_0_25_27
*949 FILLER_0_25_272
*950 FILLER_0_25_281
*951 FILLER_0_25_293
*952 FILLER_0_25_3
*953 FILLER_0_25_305
*954 FILLER_0_25_317
*955 FILLER_0_25_329
*956 FILLER_0_25_39
*957 FILLER_0_25_51
*958 FILLER_0_25_55
*959 FILLER_0_25_57
*960 FILLER_0_25_69
*961 FILLER_0_25_81
*962 FILLER_0_25_93
*963 FILLER_0_26_109
*964 FILLER_0_26_121
*965 FILLER_0_26_125
*966 FILLER_0_26_134
*967 FILLER_0_26_15
*968 FILLER_0_26_163
*969 FILLER_0_26_195
*970 FILLER_0_26_248
*971 FILLER_0_26_266
*972 FILLER_0_26_27
*973 FILLER_0_26_280
*974 FILLER_0_26_288
*975 FILLER_0_26_29
*976 FILLER_0_26_294
*977 FILLER_0_26_3
*978 FILLER_0_26_306
*979 FILLER_0_26_309
*980 FILLER_0_26_321
*981 FILLER_0_26_333
*982 FILLER_0_26_41
*983 FILLER_0_26_53
*984 FILLER_0_26_65
*985 FILLER_0_26_77
*986 FILLER_0_26_83
*987 FILLER_0_26_85
*988 FILLER_0_26_97
*989 FILLER_0_27_105
*990 FILLER_0_27_111
*991 FILLER_0_27_113
*992 FILLER_0_27_133
*993 FILLER_0_27_142
*994 FILLER_0_27_15
*995 FILLER_0_27_167
*996 FILLER_0_27_169
*997 FILLER_0_27_191
*998 FILLER_0_27_203
*999 FILLER_0_27_207
*1000 FILLER_0_27_213
*1001 FILLER_0_27_222
*1002 FILLER_0_27_225
*1003 FILLER_0_27_242
*1004 FILLER_0_27_27
*1005 FILLER_0_27_276
*1006 FILLER_0_27_293
*1007 FILLER_0_27_3
*1008 FILLER_0_27_326
*1009 FILLER_0_27_334
*1010 FILLER_0_27_39
*1011 FILLER_0_27_51
*1012 FILLER_0_27_55
*1013 FILLER_0_27_57
*1014 FILLER_0_27_69
*1015 FILLER_0_27_81
*1016 FILLER_0_27_93
*1017 FILLER_0_28_109
*1018 FILLER_0_28_117
*1019 FILLER_0_28_139
*1020 FILLER_0_28_141
*1021 FILLER_0_28_15
*1022 FILLER_0_28_157
*1023 FILLER_0_28_169
*1024 FILLER_0_28_175
*1025 FILLER_0_28_184
*1026 FILLER_0_28_195
*1027 FILLER_0_28_200
*1028 FILLER_0_28_212
*1029 FILLER_0_28_223
*1030 FILLER_0_28_230
*1031 FILLER_0_28_242
*1032 FILLER_0_28_250
*1033 FILLER_0_28_253
*1034 FILLER_0_28_262
*1035 FILLER_0_28_27
*1036 FILLER_0_28_282
*1037 FILLER_0_28_288
*1038 FILLER_0_28_29
*1039 FILLER_0_28_3
*1040 FILLER_0_28_303
*1041 FILLER_0_28_307
*1042 FILLER_0_28_321
*1043 FILLER_0_28_330
*1044 FILLER_0_28_334
*1045 FILLER_0_28_41
*1046 FILLER_0_28_53
*1047 FILLER_0_28_65
*1048 FILLER_0_28_77
*1049 FILLER_0_28_83
*1050 FILLER_0_28_85
*1051 FILLER_0_28_97
*1052 FILLER_0_29_105
*1053 FILLER_0_29_111
*1054 FILLER_0_29_113
*1055 FILLER_0_29_125
*1056 FILLER_0_29_136
*1057 FILLER_0_29_142
*1058 FILLER_0_29_147
*1059 FILLER_0_29_15
*1060 FILLER_0_29_159
*1061 FILLER_0_29_167
*1062 FILLER_0_29_179
*1063 FILLER_0_29_211
*1064 FILLER_0_29_222
*1065 FILLER_0_29_266
*1066 FILLER_0_29_27
*1067 FILLER_0_29_281
*1068 FILLER_0_29_293
*1069 FILLER_0_29_3
*1070 FILLER_0_29_300
*1071 FILLER_0_29_308
*1072 FILLER_0_29_320
*1073 FILLER_0_29_332
*1074 FILLER_0_29_39
*1075 FILLER_0_29_51
*1076 FILLER_0_29_55
*1077 FILLER_0_29_57
*1078 FILLER_0_29_69
*1079 FILLER_0_29_81
*1080 FILLER_0_29_93
*1081 FILLER_0_2_109
*1082 FILLER_0_2_121
*1083 FILLER_0_2_133
*1084 FILLER_0_2_139
*1085 FILLER_0_2_141
*1086 FILLER_0_2_15
*1087 FILLER_0_2_153
*1088 FILLER_0_2_165
*1089 FILLER_0_2_177
*1090 FILLER_0_2_189
*1091 FILLER_0_2_195
*1092 FILLER_0_2_197
*1093 FILLER_0_2_209
*1094 FILLER_0_2_221
*1095 FILLER_0_2_233
*1096 FILLER_0_2_245
*1097 FILLER_0_2_251
*1098 FILLER_0_2_253
*1099 FILLER_0_2_265
*1100 FILLER_0_2_27
*1101 FILLER_0_2_277
*1102 FILLER_0_2_289
*1103 FILLER_0_2_29
*1104 FILLER_0_2_3
*1105 FILLER_0_2_301
*1106 FILLER_0_2_307
*1107 FILLER_0_2_309
*1108 FILLER_0_2_321
*1109 FILLER_0_2_333
*1110 FILLER_0_2_41
*1111 FILLER_0_2_53
*1112 FILLER_0_2_65
*1113 FILLER_0_2_77
*1114 FILLER_0_2_83
*1115 FILLER_0_2_85
*1116 FILLER_0_2_97
*1117 FILLER_0_30_105
*1118 FILLER_0_30_122
*1119 FILLER_0_30_148
*1120 FILLER_0_30_15
*1121 FILLER_0_30_160
*1122 FILLER_0_30_179
*1123 FILLER_0_30_205
*1124 FILLER_0_30_234
*1125 FILLER_0_30_247
*1126 FILLER_0_30_251
*1127 FILLER_0_30_261
*1128 FILLER_0_30_27
*1129 FILLER_0_30_274
*1130 FILLER_0_30_286
*1131 FILLER_0_30_29
*1132 FILLER_0_30_3
*1133 FILLER_0_30_329
*1134 FILLER_0_30_41
*1135 FILLER_0_30_53
*1136 FILLER_0_30_65
*1137 FILLER_0_30_77
*1138 FILLER_0_30_83
*1139 FILLER_0_30_85
*1140 FILLER_0_30_97
*1141 FILLER_0_31_101
*1142 FILLER_0_31_15
*1143 FILLER_0_31_166
*1144 FILLER_0_31_172
*1145 FILLER_0_31_214
*1146 FILLER_0_31_225
*1147 FILLER_0_31_237
*1148 FILLER_0_31_249
*1149 FILLER_0_31_262
*1150 FILLER_0_31_27
*1151 FILLER_0_31_279
*1152 FILLER_0_31_281
*1153 FILLER_0_31_3
*1154 FILLER_0_31_310
*1155 FILLER_0_31_314
*1156 FILLER_0_31_39
*1157 FILLER_0_31_51
*1158 FILLER_0_31_55
*1159 FILLER_0_31_57
*1160 FILLER_0_31_69
*1161 FILLER_0_31_81
*1162 FILLER_0_31_93
*1163 FILLER_0_32_149
*1164 FILLER_0_32_15
*1165 FILLER_0_32_176
*1166 FILLER_0_32_184
*1167 FILLER_0_32_193
*1168 FILLER_0_32_218
*1169 FILLER_0_32_242
*1170 FILLER_0_32_250
*1171 FILLER_0_32_253
*1172 FILLER_0_32_27
*1173 FILLER_0_32_286
*1174 FILLER_0_32_29
*1175 FILLER_0_32_290
*1176 FILLER_0_32_3
*1177 FILLER_0_32_329
*1178 FILLER_0_32_41
*1179 FILLER_0_32_53
*1180 FILLER_0_32_65
*1181 FILLER_0_32_77
*1182 FILLER_0_32_83
*1183 FILLER_0_32_85
*1184 FILLER_0_32_97
*1185 FILLER_0_33_105
*1186 FILLER_0_33_111
*1187 FILLER_0_33_138
*1188 FILLER_0_33_145
*1189 FILLER_0_33_15
*1190 FILLER_0_33_151
*1191 FILLER_0_33_162
*1192 FILLER_0_33_175
*1193 FILLER_0_33_195
*1194 FILLER_0_33_207
*1195 FILLER_0_33_219
*1196 FILLER_0_33_223
*1197 FILLER_0_33_230
*1198 FILLER_0_33_248
*1199 FILLER_0_33_27
*1200 FILLER_0_33_279
*1201 FILLER_0_33_284
*1202 FILLER_0_33_296
*1203 FILLER_0_33_3
*1204 FILLER_0_33_308
*1205 FILLER_0_33_313
*1206 FILLER_0_33_321
*1207 FILLER_0_33_333
*1208 FILLER_0_33_39
*1209 FILLER_0_33_51
*1210 FILLER_0_33_55
*1211 FILLER_0_33_57
*1212 FILLER_0_33_69
*1213 FILLER_0_33_81
*1214 FILLER_0_33_93
*1215 FILLER_0_34_109
*1216 FILLER_0_34_139
*1217 FILLER_0_34_144
*1218 FILLER_0_34_15
*1219 FILLER_0_34_152
*1220 FILLER_0_34_191
*1221 FILLER_0_34_195
*1222 FILLER_0_34_210
*1223 FILLER_0_34_222
*1224 FILLER_0_34_226
*1225 FILLER_0_34_232
*1226 FILLER_0_34_247
*1227 FILLER_0_34_251
*1228 FILLER_0_34_253
*1229 FILLER_0_34_265
*1230 FILLER_0_34_27
*1231 FILLER_0_34_275
*1232 FILLER_0_34_286
*1233 FILLER_0_34_29
*1234 FILLER_0_34_298
*1235 FILLER_0_34_3
*1236 FILLER_0_34_306
*1237 FILLER_0_34_309
*1238 FILLER_0_34_323
*1239 FILLER_0_34_41
*1240 FILLER_0_34_53
*1241 FILLER_0_34_65
*1242 FILLER_0_34_77
*1243 FILLER_0_34_83
*1244 FILLER_0_34_85
*1245 FILLER_0_34_97
*1246 FILLER_0_35_101
*1247 FILLER_0_35_113
*1248 FILLER_0_35_127
*1249 FILLER_0_35_15
*1250 FILLER_0_35_154
*1251 FILLER_0_35_158
*1252 FILLER_0_35_167
*1253 FILLER_0_35_183
*1254 FILLER_0_35_187
*1255 FILLER_0_35_217
*1256 FILLER_0_35_223
*1257 FILLER_0_35_235
*1258 FILLER_0_35_248
*1259 FILLER_0_35_263
*1260 FILLER_0_35_27
*1261 FILLER_0_35_275
*1262 FILLER_0_35_279
*1263 FILLER_0_35_281
*1264 FILLER_0_35_293
*1265 FILLER_0_35_3
*1266 FILLER_0_35_300
*1267 FILLER_0_35_307
*1268 FILLER_0_35_328
*1269 FILLER_0_35_334
*1270 FILLER_0_35_39
*1271 FILLER_0_35_51
*1272 FILLER_0_35_55
*1273 FILLER_0_35_57
*1274 FILLER_0_35_69
*1275 FILLER_0_35_81
*1276 FILLER_0_35_93
*1277 FILLER_0_36_101
*1278 FILLER_0_36_134
*1279 FILLER_0_36_141
*1280 FILLER_0_36_15
*1281 FILLER_0_36_167
*1282 FILLER_0_36_234
*1283 FILLER_0_36_253
*1284 FILLER_0_36_27
*1285 FILLER_0_36_280
*1286 FILLER_0_36_29
*1287 FILLER_0_36_3
*1288 FILLER_0_36_305
*1289 FILLER_0_36_331
*1290 FILLER_0_36_41
*1291 FILLER_0_36_53
*1292 FILLER_0_36_65
*1293 FILLER_0_36_77
*1294 FILLER_0_36_83
*1295 FILLER_0_36_85
*1296 FILLER_0_36_97
*1297 FILLER_0_37_105
*1298 FILLER_0_37_111
*1299 FILLER_0_37_113
*1300 FILLER_0_37_15
*1301 FILLER_0_37_165
*1302 FILLER_0_37_185
*1303 FILLER_0_37_225
*1304 FILLER_0_37_232
*1305 FILLER_0_37_27
*1306 FILLER_0_37_275
*1307 FILLER_0_37_293
*1308 FILLER_0_37_297
*1309 FILLER_0_37_3
*1310 FILLER_0_37_322
*1311 FILLER_0_37_334
*1312 FILLER_0_37_39
*1313 FILLER_0_37_51
*1314 FILLER_0_37_55
*1315 FILLER_0_37_57
*1316 FILLER_0_37_69
*1317 FILLER_0_37_81
*1318 FILLER_0_37_93
*1319 FILLER_0_38_10
*1320 FILLER_0_38_102
*1321 FILLER_0_38_106
*1322 FILLER_0_38_110
*1323 FILLER_0_38_113
*1324 FILLER_0_38_118
*1325 FILLER_0_38_122
*1326 FILLER_0_38_126
*1327 FILLER_0_38_138
*1328 FILLER_0_38_14
*1329 FILLER_0_38_141
*1330 FILLER_0_38_152
*1331 FILLER_0_38_164
*1332 FILLER_0_38_169
*1333 FILLER_0_38_179
*1334 FILLER_0_38_18
*1335 FILLER_0_38_191
*1336 FILLER_0_38_195
*1337 FILLER_0_38_197
*1338 FILLER_0_38_201
*1339 FILLER_0_38_207
*1340 FILLER_0_38_214
*1341 FILLER_0_38_22
*1342 FILLER_0_38_222
*1343 FILLER_0_38_225
*1344 FILLER_0_38_237
*1345 FILLER_0_38_253
*1346 FILLER_0_38_257
*1347 FILLER_0_38_264
*1348 FILLER_0_38_272
*1349 FILLER_0_38_278
*1350 FILLER_0_38_281
*1351 FILLER_0_38_286
*1352 FILLER_0_38_307
*1353 FILLER_0_38_32
*1354 FILLER_0_38_321
*1355 FILLER_0_38_326
*1356 FILLER_0_38_330
*1357 FILLER_0_38_38
*1358 FILLER_0_38_42
*1359 FILLER_0_38_46
*1360 FILLER_0_38_50
*1361 FILLER_0_38_54
*1362 FILLER_0_38_57
*1363 FILLER_0_38_6
*1364 FILLER_0_38_62
*1365 FILLER_0_38_74
*1366 FILLER_0_38_78
*1367 FILLER_0_38_88
*1368 FILLER_0_38_94
*1369 FILLER_0_38_98
*1370 FILLER_0_3_105
*1371 FILLER_0_3_111
*1372 FILLER_0_3_113
*1373 FILLER_0_3_125
*1374 FILLER_0_3_137
*1375 FILLER_0_3_149
*1376 FILLER_0_3_15
*1377 FILLER_0_3_161
*1378 FILLER_0_3_167
*1379 FILLER_0_3_169
*1380 FILLER_0_3_181
*1381 FILLER_0_3_193
*1382 FILLER_0_3_205
*1383 FILLER_0_3_217
*1384 FILLER_0_3_223
*1385 FILLER_0_3_225
*1386 FILLER_0_3_237
*1387 FILLER_0_3_249
*1388 FILLER_0_3_261
*1389 FILLER_0_3_27
*1390 FILLER_0_3_273
*1391 FILLER_0_3_279
*1392 FILLER_0_3_281
*1393 FILLER_0_3_293
*1394 FILLER_0_3_3
*1395 FILLER_0_3_305
*1396 FILLER_0_3_317
*1397 FILLER_0_3_329
*1398 FILLER_0_3_39
*1399 FILLER_0_3_51
*1400 FILLER_0_3_55
*1401 FILLER_0_3_57
*1402 FILLER_0_3_69
*1403 FILLER_0_3_81
*1404 FILLER_0_3_93
*1405 FILLER_0_4_109
*1406 FILLER_0_4_121
*1407 FILLER_0_4_133
*1408 FILLER_0_4_139
*1409 FILLER_0_4_141
*1410 FILLER_0_4_15
*1411 FILLER_0_4_153
*1412 FILLER_0_4_165
*1413 FILLER_0_4_177
*1414 FILLER_0_4_189
*1415 FILLER_0_4_195
*1416 FILLER_0_4_197
*1417 FILLER_0_4_209
*1418 FILLER_0_4_221
*1419 FILLER_0_4_233
*1420 FILLER_0_4_245
*1421 FILLER_0_4_251
*1422 FILLER_0_4_253
*1423 FILLER_0_4_265
*1424 FILLER_0_4_27
*1425 FILLER_0_4_277
*1426 FILLER_0_4_289
*1427 FILLER_0_4_29
*1428 FILLER_0_4_3
*1429 FILLER_0_4_301
*1430 FILLER_0_4_307
*1431 FILLER_0_4_309
*1432 FILLER_0_4_321
*1433 FILLER_0_4_333
*1434 FILLER_0_4_41
*1435 FILLER_0_4_53
*1436 FILLER_0_4_65
*1437 FILLER_0_4_77
*1438 FILLER_0_4_83
*1439 FILLER_0_4_85
*1440 FILLER_0_4_97
*1441 FILLER_0_5_105
*1442 FILLER_0_5_111
*1443 FILLER_0_5_113
*1444 FILLER_0_5_125
*1445 FILLER_0_5_137
*1446 FILLER_0_5_149
*1447 FILLER_0_5_15
*1448 FILLER_0_5_161
*1449 FILLER_0_5_167
*1450 FILLER_0_5_169
*1451 FILLER_0_5_181
*1452 FILLER_0_5_193
*1453 FILLER_0_5_205
*1454 FILLER_0_5_217
*1455 FILLER_0_5_223
*1456 FILLER_0_5_225
*1457 FILLER_0_5_237
*1458 FILLER_0_5_249
*1459 FILLER_0_5_261
*1460 FILLER_0_5_27
*1461 FILLER_0_5_273
*1462 FILLER_0_5_279
*1463 FILLER_0_5_281
*1464 FILLER_0_5_293
*1465 FILLER_0_5_3
*1466 FILLER_0_5_305
*1467 FILLER_0_5_317
*1468 FILLER_0_5_329
*1469 FILLER_0_5_39
*1470 FILLER_0_5_51
*1471 FILLER_0_5_55
*1472 FILLER_0_5_57
*1473 FILLER_0_5_69
*1474 FILLER_0_5_81
*1475 FILLER_0_5_93
*1476 FILLER_0_6_109
*1477 FILLER_0_6_121
*1478 FILLER_0_6_133
*1479 FILLER_0_6_139
*1480 FILLER_0_6_141
*1481 FILLER_0_6_15
*1482 FILLER_0_6_153
*1483 FILLER_0_6_165
*1484 FILLER_0_6_177
*1485 FILLER_0_6_189
*1486 FILLER_0_6_195
*1487 FILLER_0_6_197
*1488 FILLER_0_6_209
*1489 FILLER_0_6_221
*1490 FILLER_0_6_233
*1491 FILLER_0_6_245
*1492 FILLER_0_6_251
*1493 FILLER_0_6_253
*1494 FILLER_0_6_265
*1495 FILLER_0_6_27
*1496 FILLER_0_6_277
*1497 FILLER_0_6_289
*1498 FILLER_0_6_29
*1499 FILLER_0_6_3
*1500 FILLER_0_6_301
*1501 FILLER_0_6_307
*1502 FILLER_0_6_309
*1503 FILLER_0_6_321
*1504 FILLER_0_6_333
*1505 FILLER_0_6_41
*1506 FILLER_0_6_53
*1507 FILLER_0_6_65
*1508 FILLER_0_6_77
*1509 FILLER_0_6_83
*1510 FILLER_0_6_85
*1511 FILLER_0_6_97
*1512 FILLER_0_7_105
*1513 FILLER_0_7_111
*1514 FILLER_0_7_113
*1515 FILLER_0_7_125
*1516 FILLER_0_7_137
*1517 FILLER_0_7_149
*1518 FILLER_0_7_15
*1519 FILLER_0_7_161
*1520 FILLER_0_7_167
*1521 FILLER_0_7_169
*1522 FILLER_0_7_181
*1523 FILLER_0_7_193
*1524 FILLER_0_7_205
*1525 FILLER_0_7_217
*1526 FILLER_0_7_223
*1527 FILLER_0_7_225
*1528 FILLER_0_7_237
*1529 FILLER_0_7_249
*1530 FILLER_0_7_261
*1531 FILLER_0_7_27
*1532 FILLER_0_7_273
*1533 FILLER_0_7_279
*1534 FILLER_0_7_281
*1535 FILLER_0_7_293
*1536 FILLER_0_7_3
*1537 FILLER_0_7_305
*1538 FILLER_0_7_317
*1539 FILLER_0_7_329
*1540 FILLER_0_7_39
*1541 FILLER_0_7_51
*1542 FILLER_0_7_55
*1543 FILLER_0_7_57
*1544 FILLER_0_7_69
*1545 FILLER_0_7_81
*1546 FILLER_0_7_93
*1547 FILLER_0_8_109
*1548 FILLER_0_8_121
*1549 FILLER_0_8_133
*1550 FILLER_0_8_139
*1551 FILLER_0_8_141
*1552 FILLER_0_8_15
*1553 FILLER_0_8_153
*1554 FILLER_0_8_165
*1555 FILLER_0_8_177
*1556 FILLER_0_8_189
*1557 FILLER_0_8_195
*1558 FILLER_0_8_197
*1559 FILLER_0_8_209
*1560 FILLER_0_8_221
*1561 FILLER_0_8_233
*1562 FILLER_0_8_245
*1563 FILLER_0_8_251
*1564 FILLER_0_8_253
*1565 FILLER_0_8_265
*1566 FILLER_0_8_27
*1567 FILLER_0_8_277