*SPEF "ieee 1481-1999"
*DESIGN "tt_um_wuehr1999_servotester"
*DATE "20:42:11 Sunday April 14, 2024"
*VENDOR "The OpenROAD Project"
*PROGRAM "OpenROAD"
*VERSION "0889970d1790a2617e69f253221b8bd7626e51dc"
*DESIGN_FLOW "NAME_SCOPE LOCAL" "PIN_CAP NONE"
*DIVIDER /
*DELIMITER :
*BUS_DELIMITER []
*T_UNIT 1 NS
*C_UNIT 1 PF
*R_UNIT 1 OHM
*L_UNIT 1 HENRY

*NAME_MAP
*3 clk
*4 ena
*5 rst_n
*6 ui_in[0]
*7 ui_in[1]
*8 ui_in[2]
*9 ui_in[3]
*10 ui_in[4]
*11 ui_in[5]
*12 ui_in[6]
*13 ui_in[7]
*14 uio_in[0]
*15 uio_in[1]
*16 uio_in[2]
*17 uio_in[3]
*18 uio_in[4]
*19 uio_in[5]
*20 uio_in[6]
*21 uio_in[7]
*22 net26
*23 net27
*24 net28
*25 net29
*26 net30
*27 net31
*28 net32
*29 net33
*30 net11
*31 net12
*32 net13
*33 net14
*34 net15
*35 net16
*36 net17
*37 uio_out[7]
*38 net18
*39 net19
*40 net20
*41 net21
*42 net22
*43 net23
*44 net24
*45 net25
*46 _000_
*47 _001_
*48 _002_
*49 _003_
*50 _004_
*51 _005_
*52 _006_
*53 _007_
*54 _008_
*55 _009_
*56 _010_
*57 _011_
*58 _012_
*59 _013_
*60 _014_
*61 _015_
*62 _016_
*63 _017_
*64 _018_
*65 _019_
*66 _020_
*67 _021_
*68 _022_
*69 _023_
*70 _024_
*71 _025_
*72 _026_
*73 _027_
*74 _028_
*75 _029_
*76 _030_
*77 _031_
*78 _032_
*79 _033_
*80 _034_
*81 _035_
*82 _036_
*83 _037_
*84 _038_
*85 _039_
*86 _040_
*87 _041_
*88 _042_
*89 _043_
*90 _044_
*91 _045_
*92 _046_
*93 _047_
*94 _048_
*95 _049_
*96 _050_
*97 _051_
*98 _052_
*99 _053_
*100 _054_
*101 _055_
*102 _056_
*103 _057_
*104 _058_
*105 _059_
*106 _060_
*107 _061_
*108 _062_
*109 _063_
*110 _064_
*111 _065_
*112 _066_
*113 _067_
*114 _068_
*115 _069_
*116 _070_
*117 _071_
*118 _072_
*119 _073_
*120 _074_
*121 _075_
*122 _076_
*123 _077_
*124 _078_
*125 _079_
*126 _080_
*127 _081_
*128 _082_
*129 _083_
*130 _084_
*131 _085_
*132 _086_
*133 _087_
*134 _088_
*135 _089_
*136 _090_
*137 _091_
*138 _092_
*139 _093_
*140 _094_
*141 _095_
*142 _096_
*143 _097_
*144 _098_
*145 _099_
*146 _100_
*147 _101_
*148 _102_
*149 _103_
*150 _104_
*151 _105_
*152 _106_
*153 _107_
*154 _108_
*155 _109_
*156 _110_
*157 _111_
*158 _112_
*159 _113_
*160 _114_
*161 _115_
*162 _116_
*163 _117_
*164 _118_
*165 _119_
*166 _120_
*167 _121_
*168 _122_
*169 _123_
*170 _124_
*171 _125_
*172 _126_
*173 _127_
*174 _128_
*175 _129_
*176 _130_
*177 _131_
*178 _132_
*179 _133_
*180 _134_
*181 _135_
*182 _136_
*183 _137_
*184 _138_
*185 _139_
*186 _140_
*187 _141_
*188 _142_
*189 _143_
*190 _144_
*191 _145_
*192 _146_
*193 _147_
*194 _148_
*195 _149_
*196 _150_
*197 _151_
*198 _152_
*199 _153_
*200 _154_
*201 _155_
*202 _156_
*203 _157_
*204 _158_
*205 _159_
*206 _160_
*207 _161_
*208 _162_
*209 _163_
*210 _164_
*211 _165_
*212 _166_
*213 _167_
*214 _168_
*215 _169_
*216 _170_
*217 _171_
*218 _172_
*219 _173_
*220 _174_
*221 _175_
*222 _176_
*223 _177_
*224 _178_
*225 _179_
*226 _180_
*227 _181_
*228 _182_
*229 _183_
*230 _184_
*231 _185_
*232 _186_
*233 _187_
*234 _188_
*235 _189_
*236 _190_
*237 _191_
*238 _192_
*239 _193_
*240 _194_
*241 _195_
*242 _196_
*243 _197_
*244 _198_
*245 _199_
*246 _200_
*247 _201_
*248 _202_
*249 _203_
*250 _204_
*251 _205_
*252 _206_
*253 _207_
*254 _208_
*255 _209_
*256 _210_
*257 _211_
*258 clknet_0_clk
*259 clknet_2_0__leaf_clk
*260 clknet_2_1__leaf_clk
*261 clknet_2_2__leaf_clk
*262 clknet_2_3__leaf_clk
*263 counter\[0\]
*264 counter\[10\]
*265 counter\[11\]
*266 counter\[12\]
*267 counter\[13\]
*268 counter\[14\]
*269 counter\[15\]
*270 counter\[16\]
*271 counter\[17\]
*272 counter\[18\]
*273 counter\[19\]
*274 counter\[1\]
*275 counter\[20\]
*276 counter\[2\]
*277 counter\[3\]
*278 counter\[4\]
*279 counter\[5\]
*280 counter\[6\]
*281 counter\[7\]
*282 counter\[8\]
*283 counter\[9\]
*284 net1
*285 net10
*286 net2
*287 net3
*288 net34
*289 net35
*290 net36
*291 net37
*292 net38
*293 net39
*294 net4
*295 net40
*296 net41
*297 net42
*298 net43
*299 net44
*300 net45
*301 net46
*302 net47
*303 net48
*304 net49
*305 net5
*306 net50
*307 net51
*308 net52
*309 net53
*310 net54
*311 net55
*312 net56
*313 net57
*314 net58
*315 net59
*316 net6
*317 net60
*318 net61
*319 net62
*320 net63
*321 net64
*322 net65
*323 net66
*324 net67
*325 net68
*326 net69
*327 net7
*328 net70
*329 net71
*330 net72
*331 net73
*332 net8
*333 net9
*334 signal\[0\]
*335 signal\[1\]
*336 signal\[2\]
*337 signal\[3\]
*338 signal\[4\]
*339 signal\[5\]
*340 signal\[6\]
*341 signal\[7\]
*342 signal_counter\[0\]
*343 signal_counter\[10\]
*344 signal_counter\[11\]
*345 signal_counter\[12\]
*346 signal_counter\[13\]
*347 signal_counter\[14\]
*348 signal_counter\[15\]
*349 signal_counter\[16\]
*350 signal_counter\[17\]
*351 signal_counter\[18\]
*352 signal_counter\[19\]
*353 signal_counter\[1\]
*354 signal_counter\[20\]
*355 signal_counter\[2\]
*356 signal_counter\[3\]
*357 signal_counter\[4\]
*358 signal_counter\[5\]
*359 signal_counter\[6\]
*360 signal_counter\[7\]
*361 signal_counter\[8\]
*362 signal_counter\[9\]
*363 FILLER_0_0_109
*364 FILLER_0_0_113
*365 FILLER_0_0_125
*366 FILLER_0_0_137
*367 FILLER_0_0_141
*368 FILLER_0_0_15
*369 FILLER_0_0_153
*370 FILLER_0_0_165
*371 FILLER_0_0_169
*372 FILLER_0_0_181
*373 FILLER_0_0_193
*374 FILLER_0_0_197
*375 FILLER_0_0_209
*376 FILLER_0_0_221
*377 FILLER_0_0_225
*378 FILLER_0_0_237
*379 FILLER_0_0_249
*380 FILLER_0_0_253
*381 FILLER_0_0_265
*382 FILLER_0_0_27
*383 FILLER_0_0_277
*384 FILLER_0_0_281
*385 FILLER_0_0_29
*386 FILLER_0_0_293
*387 FILLER_0_0_3
*388 FILLER_0_0_305
*389 FILLER_0_0_309
*390 FILLER_0_0_321
*391 FILLER_0_0_333
*392 FILLER_0_0_41
*393 FILLER_0_0_53
*394 FILLER_0_0_57
*395 FILLER_0_0_69
*396 FILLER_0_0_81
*397 FILLER_0_0_85
*398 FILLER_0_0_97
*399 FILLER_0_10_109
*400 FILLER_0_10_121
*401 FILLER_0_10_133
*402 FILLER_0_10_139
*403 FILLER_0_10_141
*404 FILLER_0_10_15
*405 FILLER_0_10_153
*406 FILLER_0_10_165
*407 FILLER_0_10_177
*408 FILLER_0_10_189
*409 FILLER_0_10_195
*410 FILLER_0_10_197
*411 FILLER_0_10_209
*412 FILLER_0_10_221
*413 FILLER_0_10_233
*414 FILLER_0_10_245
*415 FILLER_0_10_251
*416 FILLER_0_10_253
*417 FILLER_0_10_265
*418 FILLER_0_10_27
*419 FILLER_0_10_277
*420 FILLER_0_10_289
*421 FILLER_0_10_29
*422 FILLER_0_10_3
*423 FILLER_0_10_301
*424 FILLER_0_10_307
*425 FILLER_0_10_309
*426 FILLER_0_10_321
*427 FILLER_0_10_333
*428 FILLER_0_10_41
*429 FILLER_0_10_53
*430 FILLER_0_10_65
*431 FILLER_0_10_77
*432 FILLER_0_10_83
*433 FILLER_0_10_85
*434 FILLER_0_10_97
*435 FILLER_0_11_105
*436 FILLER_0_11_111
*437 FILLER_0_11_113
*438 FILLER_0_11_125
*439 FILLER_0_11_137
*440 FILLER_0_11_149
*441 FILLER_0_11_15
*442 FILLER_0_11_161
*443 FILLER_0_11_167
*444 FILLER_0_11_169
*445 FILLER_0_11_181
*446 FILLER_0_11_193
*447 FILLER_0_11_205
*448 FILLER_0_11_217
*449 FILLER_0_11_223
*450 FILLER_0_11_225
*451 FILLER_0_11_237
*452 FILLER_0_11_249
*453 FILLER_0_11_261
*454 FILLER_0_11_27
*455 FILLER_0_11_273
*456 FILLER_0_11_279
*457 FILLER_0_11_281
*458 FILLER_0_11_293
*459 FILLER_0_11_3
*460 FILLER_0_11_305
*461 FILLER_0_11_317
*462 FILLER_0_11_329
*463 FILLER_0_11_39
*464 FILLER_0_11_51
*465 FILLER_0_11_55
*466 FILLER_0_11_57
*467 FILLER_0_11_69
*468 FILLER_0_11_81
*469 FILLER_0_11_93
*470 FILLER_0_12_109
*471 FILLER_0_12_121
*472 FILLER_0_12_133
*473 FILLER_0_12_139
*474 FILLER_0_12_141
*475 FILLER_0_12_15
*476 FILLER_0_12_153
*477 FILLER_0_12_165
*478 FILLER_0_12_177
*479 FILLER_0_12_189
*480 FILLER_0_12_195
*481 FILLER_0_12_197
*482 FILLER_0_12_209
*483 FILLER_0_12_221
*484 FILLER_0_12_233
*485 FILLER_0_12_245
*486 FILLER_0_12_251
*487 FILLER_0_12_253
*488 FILLER_0_12_265
*489 FILLER_0_12_27
*490 FILLER_0_12_277
*491 FILLER_0_12_289
*492 FILLER_0_12_29
*493 FILLER_0_12_3
*494 FILLER_0_12_301
*495 FILLER_0_12_307
*496 FILLER_0_12_309
*497 FILLER_0_12_321
*498 FILLER_0_12_333
*499 FILLER_0_12_41
*500 FILLER_0_12_53
*501 FILLER_0_12_65
*502 FILLER_0_12_77
*503 FILLER_0_12_83
*504 FILLER_0_12_85
*505 FILLER_0_12_97
*506 FILLER_0_13_105
*507 FILLER_0_13_111
*508 FILLER_0_13_113
*509 FILLER_0_13_125
*510 FILLER_0_13_137
*511 FILLER_0_13_149
*512 FILLER_0_13_15
*513 FILLER_0_13_161
*514 FILLER_0_13_167
*515 FILLER_0_13_169
*516 FILLER_0_13_181
*517 FILLER_0_13_193
*518 FILLER_0_13_205
*519 FILLER_0_13_217
*520 FILLER_0_13_223
*521 FILLER_0_13_225
*522 FILLER_0_13_237
*523 FILLER_0_13_249
*524 FILLER_0_13_261
*525 FILLER_0_13_27
*526 FILLER_0_13_273
*527 FILLER_0_13_279
*528 FILLER_0_13_281
*529 FILLER_0_13_293
*530 FILLER_0_13_3
*531 FILLER_0_13_305
*532 FILLER_0_13_317
*533 FILLER_0_13_329
*534 FILLER_0_13_39
*535 FILLER_0_13_51
*536 FILLER_0_13_55
*537 FILLER_0_13_57
*538 FILLER_0_13_69
*539 FILLER_0_13_81
*540 FILLER_0_13_93
*541 FILLER_0_14_109
*542 FILLER_0_14_121
*543 FILLER_0_14_133
*544 FILLER_0_14_139
*545 FILLER_0_14_141
*546 FILLER_0_14_15
*547 FILLER_0_14_153
*548 FILLER_0_14_165
*549 FILLER_0_14_177
*550 FILLER_0_14_189
*551 FILLER_0_14_195
*552 FILLER_0_14_197
*553 FILLER_0_14_209
*554 FILLER_0_14_221
*555 FILLER_0_14_233
*556 FILLER_0_14_245
*557 FILLER_0_14_251
*558 FILLER_0_14_253
*559 FILLER_0_14_265
*560 FILLER_0_14_27
*561 FILLER_0_14_277
*562 FILLER_0_14_289
*563 FILLER_0_14_29
*564 FILLER_0_14_3
*565 FILLER_0_14_301
*566 FILLER_0_14_307
*567 FILLER_0_14_309
*568 FILLER_0_14_321
*569 FILLER_0_14_333
*570 FILLER_0_14_41
*571 FILLER_0_14_53
*572 FILLER_0_14_65
*573 FILLER_0_14_77
*574 FILLER_0_14_83
*575 FILLER_0_14_85
*576 FILLER_0_14_97
*577 FILLER_0_15_105
*578 FILLER_0_15_111
*579 FILLER_0_15_113
*580 FILLER_0_15_125
*581 FILLER_0_15_137
*582 FILLER_0_15_149
*583 FILLER_0_15_15
*584 FILLER_0_15_161
*585 FILLER_0_15_167
*586 FILLER_0_15_169
*587 FILLER_0_15_181
*588 FILLER_0_15_193
*589 FILLER_0_15_205
*590 FILLER_0_15_217
*591 FILLER_0_15_223
*592 FILLER_0_15_225
*593 FILLER_0_15_237
*594 FILLER_0_15_249
*595 FILLER_0_15_261
*596 FILLER_0_15_27
*597 FILLER_0_15_273
*598 FILLER_0_15_279
*599 FILLER_0_15_281
*600 FILLER_0_15_293
*601 FILLER_0_15_3
*602 FILLER_0_15_305
*603 FILLER_0_15_317
*604 FILLER_0_15_329
*605 FILLER_0_15_39
*606 FILLER_0_15_51
*607 FILLER_0_15_55
*608 FILLER_0_15_57
*609 FILLER_0_15_69
*610 FILLER_0_15_81
*611 FILLER_0_15_93
*612 FILLER_0_16_109
*613 FILLER_0_16_121
*614 FILLER_0_16_133
*615 FILLER_0_16_139
*616 FILLER_0_16_141
*617 FILLER_0_16_15
*618 FILLER_0_16_153
*619 FILLER_0_16_165
*620 FILLER_0_16_177
*621 FILLER_0_16_189
*622 FILLER_0_16_195
*623 FILLER_0_16_197
*624 FILLER_0_16_209
*625 FILLER_0_16_221
*626 FILLER_0_16_233
*627 FILLER_0_16_245
*628 FILLER_0_16_251
*629 FILLER_0_16_253
*630 FILLER_0_16_265
*631 FILLER_0_16_27
*632 FILLER_0_16_277
*633 FILLER_0_16_289
*634 FILLER_0_16_29
*635 FILLER_0_16_3
*636 FILLER_0_16_301
*637 FILLER_0_16_307
*638 FILLER_0_16_309
*639 FILLER_0_16_321
*640 FILLER_0_16_333
*641 FILLER_0_16_41
*642 FILLER_0_16_53
*643 FILLER_0_16_65
*644 FILLER_0_16_77
*645 FILLER_0_16_83
*646 FILLER_0_16_85
*647 FILLER_0_16_97
*648 FILLER_0_17_105
*649 FILLER_0_17_111
*650 FILLER_0_17_113
*651 FILLER_0_17_125
*652 FILLER_0_17_137
*653 FILLER_0_17_149
*654 FILLER_0_17_15
*655 FILLER_0_17_161
*656 FILLER_0_17_167
*657 FILLER_0_17_169
*658 FILLER_0_17_181
*659 FILLER_0_17_193
*660 FILLER_0_17_205
*661 FILLER_0_17_217
*662 FILLER_0_17_223
*663 FILLER_0_17_225
*664 FILLER_0_17_237
*665 FILLER_0_17_249
*666 FILLER_0_17_261
*667 FILLER_0_17_27
*668 FILLER_0_17_273
*669 FILLER_0_17_279
*670 FILLER_0_17_281
*671 FILLER_0_17_293
*672 FILLER_0_17_3
*673 FILLER_0_17_305
*674 FILLER_0_17_317
*675 FILLER_0_17_329
*676 FILLER_0_17_39
*677 FILLER_0_17_51
*678 FILLER_0_17_55
*679 FILLER_0_17_57
*680 FILLER_0_17_69
*681 FILLER_0_17_81
*682 FILLER_0_17_93
*683 FILLER_0_18_109
*684 FILLER_0_18_121
*685 FILLER_0_18_133
*686 FILLER_0_18_139
*687 FILLER_0_18_141
*688 FILLER_0_18_15
*689 FILLER_0_18_153
*690 FILLER_0_18_165
*691 FILLER_0_18_177
*692 FILLER_0_18_189
*693 FILLER_0_18_195
*694 FILLER_0_18_197
*695 FILLER_0_18_209
*696 FILLER_0_18_221
*697 FILLER_0_18_233
*698 FILLER_0_18_245
*699 FILLER_0_18_251
*700 FILLER_0_18_253
*701 FILLER_0_18_265
*702 FILLER_0_18_27
*703 FILLER_0_18_277
*704 FILLER_0_18_289
*705 FILLER_0_18_29
*706 FILLER_0_18_3
*707 FILLER_0_18_301
*708 FILLER_0_18_307
*709 FILLER_0_18_309
*710 FILLER_0_18_321
*711 FILLER_0_18_333
*712 FILLER_0_18_41
*713 FILLER_0_18_53
*714 FILLER_0_18_65
*715 FILLER_0_18_77
*716 FILLER_0_18_83
*717 FILLER_0_18_85
*718 FILLER_0_18_97
*719 FILLER_0_19_105
*720 FILLER_0_19_111
*721 FILLER_0_19_113
*722 FILLER_0_19_125
*723 FILLER_0_19_137
*724 FILLER_0_19_149
*725 FILLER_0_19_15
*726 FILLER_0_19_161
*727 FILLER_0_19_167
*728 FILLER_0_19_169
*729 FILLER_0_19_181
*730 FILLER_0_19_193
*731 FILLER_0_19_205
*732 FILLER_0_19_217
*733 FILLER_0_19_223
*734 FILLER_0_19_225
*735 FILLER_0_19_237
*736 FILLER_0_19_249
*737 FILLER_0_19_261
*738 FILLER_0_19_27
*739 FILLER_0_19_273
*740 FILLER_0_19_279
*741 FILLER_0_19_281
*742 FILLER_0_19_293
*743 FILLER_0_19_3
*744 FILLER_0_19_305
*745 FILLER_0_19_317
*746 FILLER_0_19_329
*747 FILLER_0_19_39
*748 FILLER_0_19_51
*749 FILLER_0_19_55
*750 FILLER_0_19_57
*751 FILLER_0_19_69
*752 FILLER_0_19_81
*753 FILLER_0_19_93
*754 FILLER_0_1_105
*755 FILLER_0_1_111
*756 FILLER_0_1_113
*757 FILLER_0_1_125
*758 FILLER_0_1_137
*759 FILLER_0_1_149
*760 FILLER_0_1_15
*761 FILLER_0_1_161
*762 FILLER_0_1_167
*763 FILLER_0_1_169
*764 FILLER_0_1_181
*765 FILLER_0_1_193
*766 FILLER_0_1_205
*767 FILLER_0_1_217
*768 FILLER_0_1_223
*769 FILLER_0_1_225
*770 FILLER_0_1_237
*771 FILLER_0_1_249
*772 FILLER_0_1_261
*773 FILLER_0_1_27
*774 FILLER_0_1_273
*775 FILLER_0_1_279
*776 FILLER_0_1_281
*777 FILLER_0_1_293
*778 FILLER_0_1_3
*779 FILLER_0_1_305
*780 FILLER_0_1_317
*781 FILLER_0_1_329
*782 FILLER_0_1_39
*783 FILLER_0_1_51
*784 FILLER_0_1_55
*785 FILLER_0_1_57
*786 FILLER_0_1_69
*787 FILLER_0_1_81
*788 FILLER_0_1_93
*789 FILLER_0_20_109
*790 FILLER_0_20_121
*791 FILLER_0_20_133
*792 FILLER_0_20_139
*793 FILLER_0_20_141
*794 FILLER_0_20_15
*795 FILLER_0_20_153
*796 FILLER_0_20_165
*797 FILLER_0_20_177
*798 FILLER_0_20_190
*799 FILLER_0_20_197
*800 FILLER_0_20_209
*801 FILLER_0_20_231
*802 FILLER_0_20_243
*803 FILLER_0_20_251
*804 FILLER_0_20_269
*805 FILLER_0_20_27
*806 FILLER_0_20_281
*807 FILLER_0_20_29
*808 FILLER_0_20_293
*809 FILLER_0_20_3
*810 FILLER_0_20_305
*811 FILLER_0_20_309
*812 FILLER_0_20_321
*813 FILLER_0_20_333
*814 FILLER_0_20_41
*815 FILLER_0_20_53
*816 FILLER_0_20_65
*817 FILLER_0_20_77
*818 FILLER_0_20_83
*819 FILLER_0_20_85
*820 FILLER_0_20_97
*821 FILLER_0_21_105
*822 FILLER_0_21_111
*823 FILLER_0_21_113
*824 FILLER_0_21_125
*825 FILLER_0_21_137
*826 FILLER_0_21_149
*827 FILLER_0_21_15
*828 FILLER_0_21_161
*829 FILLER_0_21_167
*830 FILLER_0_21_185
*831 FILLER_0_21_200
*832 FILLER_0_21_225
*833 FILLER_0_21_266
*834 FILLER_0_21_27
*835 FILLER_0_21_274
*836 FILLER_0_21_281
*837 FILLER_0_21_293
*838 FILLER_0_21_3
*839 FILLER_0_21_305
*840 FILLER_0_21_317
*841 FILLER_0_21_329
*842 FILLER_0_21_39
*843 FILLER_0_21_51
*844 FILLER_0_21_55
*845 FILLER_0_21_57
*846 FILLER_0_21_69
*847 FILLER_0_21_81
*848 FILLER_0_21_93
*849 FILLER_0_22_109
*850 FILLER_0_22_121
*851 FILLER_0_22_133
*852 FILLER_0_22_139
*853 FILLER_0_22_141
*854 FILLER_0_22_15
*855 FILLER_0_22_153
*856 FILLER_0_22_165
*857 FILLER_0_22_224
*858 FILLER_0_22_234
*859 FILLER_0_22_269
*860 FILLER_0_22_27
*861 FILLER_0_22_279
*862 FILLER_0_22_29
*863 FILLER_0_22_291
*864 FILLER_0_22_3
*865 FILLER_0_22_303
*866 FILLER_0_22_307
*867 FILLER_0_22_309
*868 FILLER_0_22_321
*869 FILLER_0_22_333
*870 FILLER_0_22_41
*871 FILLER_0_22_53
*872 FILLER_0_22_65
*873 FILLER_0_22_77
*874 FILLER_0_22_83
*875 FILLER_0_22_85
*876 FILLER_0_22_97
*877 FILLER_0_23_105
*878 FILLER_0_23_111
*879 FILLER_0_23_113
*880 FILLER_0_23_125
*881 FILLER_0_23_137
*882 FILLER_0_23_149
*883 FILLER_0_23_15
*884 FILLER_0_23_161
*885 FILLER_0_23_167
*886 FILLER_0_23_169
*887 FILLER_0_23_205
*888 FILLER_0_23_213
*889 FILLER_0_23_220
*890 FILLER_0_23_27
*891 FILLER_0_23_274
*892 FILLER_0_23_281
*893 FILLER_0_23_293
*894 FILLER_0_23_3
*895 FILLER_0_23_305
*896 FILLER_0_23_317
*897 FILLER_0_23_329
*898 FILLER_0_23_39
*899 FILLER_0_23_51
*900 FILLER_0_23_55
*901 FILLER_0_23_57
*902 FILLER_0_23_69
*903 FILLER_0_23_81
*904 FILLER_0_23_93
*905 FILLER_0_24_109
*906 FILLER_0_24_121
*907 FILLER_0_24_133
*908 FILLER_0_24_139
*909 FILLER_0_24_141
*910 FILLER_0_24_15
*911 FILLER_0_24_153
*912 FILLER_0_24_163
*913 FILLER_0_24_175
*914 FILLER_0_24_192
*915 FILLER_0_24_205
*916 FILLER_0_24_217
*917 FILLER_0_24_225
*918 FILLER_0_24_231
*919 FILLER_0_24_239
*920 FILLER_0_24_251
*921 FILLER_0_24_266
*922 FILLER_0_24_27
*923 FILLER_0_24_278
*924 FILLER_0_24_29
*925 FILLER_0_24_290
*926 FILLER_0_24_3
*927 FILLER_0_24_302
*928 FILLER_0_24_309
*929 FILLER_0_24_321
*930 FILLER_0_24_333
*931 FILLER_0_24_41
*932 FILLER_0_24_53
*933 FILLER_0_24_65
*934 FILLER_0_24_77
*935 FILLER_0_24_83
*936 FILLER_0_24_85
*937 FILLER_0_24_97
*938 FILLER_0_25_105
*939 FILLER_0_25_111
*940 FILLER_0_25_113
*941 FILLER_0_25_125
*942 FILLER_0_25_137
*943 FILLER_0_25_145
*944 FILLER_0_25_15
*945 FILLER_0_25_154
*946 FILLER_0_25_163
*947 FILLER_0_25_167
*948 FILLER_0_25_190
*949 FILLER_0_25_202
*950 FILLER_0_25_214
*951 FILLER_0_25_241
*952 FILLER_0_25_257
*953 FILLER_0_25_261
*954 FILLER_0_25_27
*955 FILLER_0_25_276
*956 FILLER_0_25_281
*957 FILLER_0_25_293
*958 FILLER_0_25_3
*959 FILLER_0_25_305
*960 FILLER_0_25_317
*961 FILLER_0_25_329
*962 FILLER_0_25_39
*963 FILLER_0_25_51
*964 FILLER_0_25_55
*965 FILLER_0_25_57
*966 FILLER_0_25_69
*967 FILLER_0_25_81
*968 FILLER_0_25_93
*969 FILLER_0_26_109
*970 FILLER_0_26_121
*971 FILLER_0_26_133
*972 FILLER_0_26_139
*973 FILLER_0_26_15
*974 FILLER_0_26_157
*975 FILLER_0_26_200
*976 FILLER_0_26_212
*977 FILLER_0_26_232
*978 FILLER_0_26_251
*979 FILLER_0_26_27
*980 FILLER_0_26_288
*981 FILLER_0_26_29
*982 FILLER_0_26_3
*983 FILLER_0_26_300
*984 FILLER_0_26_309
*985 FILLER_0_26_321
*986 FILLER_0_26_333
*987 FILLER_0_26_41
*988 FILLER_0_26_53
*989 FILLER_0_26_65
*990 FILLER_0_26_77
*991 FILLER_0_26_83
*992 FILLER_0_26_85
*993 FILLER_0_26_97
*994 FILLER_0_27_105
*995 FILLER_0_27_111
*996 FILLER_0_27_135
*997 FILLER_0_27_15
*998 FILLER_0_27_167
*999 FILLER_0_27_180
*1000 FILLER_0_27_213
*1001 FILLER_0_27_252
*1002 FILLER_0_27_27
*1003 FILLER_0_27_278
*1004 FILLER_0_27_297
*1005 FILLER_0_27_3
*1006 FILLER_0_27_305
*1007 FILLER_0_27_312
*1008 FILLER_0_27_331
*1009 FILLER_0_27_39
*1010 FILLER_0_27_51
*1011 FILLER_0_27_55
*1012 FILLER_0_27_57
*1013 FILLER_0_27_69
*1014 FILLER_0_27_81
*1015 FILLER_0_27_93
*1016 FILLER_0_28_109
*1017 FILLER_0_28_121
*1018 FILLER_0_28_139
*1019 FILLER_0_28_146
*1020 FILLER_0_28_15
*1021 FILLER_0_28_153
*1022 FILLER_0_28_168
*1023 FILLER_0_28_177
*1024 FILLER_0_28_181
*1025 FILLER_0_28_194
*1026 FILLER_0_28_212
*1027 FILLER_0_28_242
*1028 FILLER_0_28_250
*1029 FILLER_0_28_27
*1030 FILLER_0_28_271
*1031 FILLER_0_28_29
*1032 FILLER_0_28_298
*1033 FILLER_0_28_3
*1034 FILLER_0_28_307
*1035 FILLER_0_28_325
*1036 FILLER_0_28_41
*1037 FILLER_0_28_53
*1038 FILLER_0_28_65
*1039 FILLER_0_28_77
*1040 FILLER_0_28_83
*1041 FILLER_0_28_85
*1042 FILLER_0_28_97
*1043 FILLER_0_29_105
*1044 FILLER_0_29_111
*1045 FILLER_0_29_141
*1046 FILLER_0_29_15
*1047 FILLER_0_29_153
*1048 FILLER_0_29_159
*1049 FILLER_0_29_163
*1050 FILLER_0_29_167
*1051 FILLER_0_29_169
*1052 FILLER_0_29_181
*1053 FILLER_0_29_207
*1054 FILLER_0_29_219
*1055 FILLER_0_29_223
*1056 FILLER_0_29_245
*1057 FILLER_0_29_257
*1058 FILLER_0_29_266
*1059 FILLER_0_29_27
*1060 FILLER_0_29_279
*1061 FILLER_0_29_291
*1062 FILLER_0_29_3
*1063 FILLER_0_29_303
*1064 FILLER_0_29_309
*1065 FILLER_0_29_318
*1066 FILLER_0_29_324
*1067 FILLER_0_29_331
*1068 FILLER_0_29_39
*1069 FILLER_0_29_51
*1070 FILLER_0_29_55
*1071 FILLER_0_29_57
*1072 FILLER_0_29_69
*1073 FILLER_0_29_81
*1074 FILLER_0_29_93
*1075 FILLER_0_2_109
*1076 FILLER_0_2_121
*1077 FILLER_0_2_133
*1078 FILLER_0_2_139
*1079 FILLER_0_2_141
*1080 FILLER_0_2_15
*1081 FILLER_0_2_153
*1082 FILLER_0_2_165
*1083 FILLER_0_2_177
*1084 FILLER_0_2_189
*1085 FILLER_0_2_195
*1086 FILLER_0_2_197
*1087 FILLER_0_2_209
*1088 FILLER_0_2_221
*1089 FILLER_0_2_233
*1090 FILLER_0_2_245
*1091 FILLER_0_2_251
*1092 FILLER_0_2_253
*1093 FILLER_0_2_265
*1094 FILLER_0_2_27
*1095 FILLER_0_2_277
*1096 FILLER_0_2_289
*1097 FILLER_0_2_29
*1098 FILLER_0_2_3
*1099 FILLER_0_2_301
*1100 FILLER_0_2_307
*1101 FILLER_0_2_309
*1102 FILLER_0_2_321
*1103 FILLER_0_2_333
*1104 FILLER_0_2_41
*1105 FILLER_0_2_53
*1106 FILLER_0_2_65
*1107 FILLER_0_2_77
*1108 FILLER_0_2_83
*1109 FILLER_0_2_85
*1110 FILLER_0_2_97
*1111 FILLER_0_30_109
*1112 FILLER_0_30_115
*1113 FILLER_0_30_15
*1114 FILLER_0_30_156
*1115 FILLER_0_30_168
*1116 FILLER_0_30_189
*1117 FILLER_0_30_195
*1118 FILLER_0_30_197
*1119 FILLER_0_30_201
*1120 FILLER_0_30_213
*1121 FILLER_0_30_234
*1122 FILLER_0_30_240
*1123 FILLER_0_30_269
*1124 FILLER_0_30_27
*1125 FILLER_0_30_281
*1126 FILLER_0_30_29
*1127 FILLER_0_30_293
*1128 FILLER_0_30_3
*1129 FILLER_0_30_301
*1130 FILLER_0_30_307
*1131 FILLER_0_30_312
*1132 FILLER_0_30_331
*1133 FILLER_0_30_41
*1134 FILLER_0_30_53
*1135 FILLER_0_30_65
*1136 FILLER_0_30_77
*1137 FILLER_0_30_83
*1138 FILLER_0_30_85
*1139 FILLER_0_30_97
*1140 FILLER_0_31_105
*1141 FILLER_0_31_111
*1142 FILLER_0_31_144
*1143 FILLER_0_31_15
*1144 FILLER_0_31_156
*1145 FILLER_0_31_212
*1146 FILLER_0_31_245
*1147 FILLER_0_31_254
*1148 FILLER_0_31_266
*1149 FILLER_0_31_27
*1150 FILLER_0_31_275
*1151 FILLER_0_31_279
*1152 FILLER_0_31_281
*1153 FILLER_0_31_289
*1154 FILLER_0_31_3
*1155 FILLER_0_31_333
*1156 FILLER_0_31_39
*1157 FILLER_0_31_51
*1158 FILLER_0_31_55
*1159 FILLER_0_31_57
*1160 FILLER_0_31_69
*1161 FILLER_0_31_81
*1162 FILLER_0_31_93
*1163 FILLER_0_32_144
*1164 FILLER_0_32_15
*1165 FILLER_0_32_191
*1166 FILLER_0_32_195
*1167 FILLER_0_32_205
*1168 FILLER_0_32_213
*1169 FILLER_0_32_220
*1170 FILLER_0_32_233
*1171 FILLER_0_32_249
*1172 FILLER_0_32_253
*1173 FILLER_0_32_259
*1174 FILLER_0_32_27
*1175 FILLER_0_32_279
*1176 FILLER_0_32_29
*1177 FILLER_0_32_3
*1178 FILLER_0_32_304
*1179 FILLER_0_32_329
*1180 FILLER_0_32_41
*1181 FILLER_0_32_53
*1182 FILLER_0_32_65
*1183 FILLER_0_32_77
*1184 FILLER_0_32_83
*1185 FILLER_0_32_85
*1186 FILLER_0_32_97
*1187 FILLER_0_33_105
*1188 FILLER_0_33_111
*1189 FILLER_0_33_113
*1190 FILLER_0_33_125
*1191 FILLER_0_33_146
*1192 FILLER_0_33_15
*1193 FILLER_0_33_158
*1194 FILLER_0_33_166
*1195 FILLER_0_33_169
*1196 FILLER_0_33_175
*1197 FILLER_0_33_192
*1198 FILLER_0_33_209
*1199 FILLER_0_33_221
*1200 FILLER_0_33_225
*1201 FILLER_0_33_231
*1202 FILLER_0_33_237
*1203 FILLER_0_33_255
*1204 FILLER_0_33_263
*1205 FILLER_0_33_269
*1206 FILLER_0_33_27
*1207 FILLER_0_33_279
*1208 FILLER_0_33_281
*1209 FILLER_0_33_289
*1210 FILLER_0_33_294
*1211 FILLER_0_33_3
*1212 FILLER_0_33_308
*1213 FILLER_0_33_322
*1214 FILLER_0_33_334
*1215 FILLER_0_33_39
*1216 FILLER_0_33_51
*1217 FILLER_0_33_55
*1218 FILLER_0_33_57
*1219 FILLER_0_33_69
*1220 FILLER_0_33_81
*1221 FILLER_0_33_93
*1222 FILLER_0_34_125
*1223 FILLER_0_34_145
*1224 FILLER_0_34_15
*1225 FILLER_0_34_153
*1226 FILLER_0_34_160
*1227 FILLER_0_34_190
*1228 FILLER_0_34_210
*1229 FILLER_0_34_221
*1230 FILLER_0_34_232
*1231 FILLER_0_34_239
*1232 FILLER_0_34_251
*1233 FILLER_0_34_259
*1234 FILLER_0_34_27
*1235 FILLER_0_34_272
*1236 FILLER_0_34_284
*1237 FILLER_0_34_29
*1238 FILLER_0_34_296
*1239 FILLER_0_34_3
*1240 FILLER_0_34_305
*1241 FILLER_0_34_319
*1242 FILLER_0_34_331
*1243 FILLER_0_34_41
*1244 FILLER_0_34_53
*1245 FILLER_0_34_65
*1246 FILLER_0_34_77
*1247 FILLER_0_34_83
*1248 FILLER_0_34_85
*1249 FILLER_0_34_97
*1250 FILLER_0_35_105
*1251 FILLER_0_35_111
*1252 FILLER_0_35_137
*1253 FILLER_0_35_15
*1254 FILLER_0_35_155
*1255 FILLER_0_35_169
*1256 FILLER_0_35_180
*1257 FILLER_0_35_189
*1258 FILLER_0_35_222
*1259 FILLER_0_35_225
*1260 FILLER_0_35_239
*1261 FILLER_0_35_253
*1262 FILLER_0_35_27
*1263 FILLER_0_35_278
*1264 FILLER_0_35_281
*1265 FILLER_0_35_293
*1266 FILLER_0_35_3
*1267 FILLER_0_35_305
*1268 FILLER_0_35_325
*1269 FILLER_0_35_333
*1270 FILLER_0_35_39
*1271 FILLER_0_35_51
*1272 FILLER_0_35_55
*1273 FILLER_0_35_57
*1274 FILLER_0_35_69
*1275 FILLER_0_35_81
*1276 FILLER_0_35_93
*1277 FILLER_0_36_109
*1278 FILLER_0_36_131
*1279 FILLER_0_36_15
*1280 FILLER_0_36_165
*1281 FILLER_0_36_218
*1282 FILLER_0_36_250
*1283 FILLER_0_36_253
*1284 FILLER_0_36_27
*1285 FILLER_0_36_279
*1286 FILLER_0_36_29
*1287 FILLER_0_36_291
*1288 FILLER_0_36_297
*1289 FILLER_0_36_3
*1290 FILLER_0_36_304
*1291 FILLER_0_36_324
*1292 FILLER_0_36_332
*1293 FILLER_0_36_41
*1294 FILLER_0_36_53
*1295 FILLER_0_36_65
*1296 FILLER_0_36_77
*1297 FILLER_0_36_83
*1298 FILLER_0_36_85
*1299 FILLER_0_36_97
*1300 FILLER_0_37_105
*1301 FILLER_0_37_111
*1302 FILLER_0_37_113
*1303 FILLER_0_37_125
*1304 FILLER_0_37_131
*1305 FILLER_0_37_140
*1306 FILLER_0_37_15
*1307 FILLER_0_37_166
*1308 FILLER_0_37_169
*1309 FILLER_0_37_180
*1310 FILLER_0_37_184
*1311 FILLER_0_37_217
*1312 FILLER_0_37_223
*1313 FILLER_0_37_241
*1314 FILLER_0_37_250
*1315 FILLER_0_37_27
*1316 FILLER_0_37_278
*1317 FILLER_0_37_291
*1318 FILLER_0_37_3
*1319 FILLER_0_37_311
*1320 FILLER_0_37_334
*1321 FILLER_0_37_39
*1322 FILLER_0_37_51
*1323 FILLER_0_37_55
*1324 FILLER_0_37_57
*1325 FILLER_0_37_69
*1326 FILLER_0_37_81
*1327 FILLER_0_37_93
*1328 FILLER_0_38_10
*1329 FILLER_0_38_102
*1330 FILLER_0_38_106
*1331 FILLER_0_38_110
*1332 FILLER_0_38_113
*1333 FILLER_0_38_118
*1334 FILLER_0_38_122
*1335 FILLER_0_38_126
*1336 FILLER_0_38_130
*1337 FILLER_0_38_134
*1338 FILLER_0_38_14
*1339 FILLER_0_38_144
*1340 FILLER_0_38_150
*1341 FILLER_0_38_154
*1342 FILLER_0_38_158
*1343 FILLER_0_38_162
*1344 FILLER_0_38_166
*1345 FILLER_0_38_169
*1346 FILLER_0_38_174
*1347 FILLER_0_38_178
*1348 FILLER_0_38_18
*1349 FILLER_0_38_182
*1350 FILLER_0_38_186
*1351 FILLER_0_38_190
*1352 FILLER_0_38_197
*1353 FILLER_0_38_201
*1354 FILLER_0_38_213
*1355 FILLER_0_38_22
*1356 FILLER_0_38_221
*1357 FILLER_0_38_225
*1358 FILLER_0_38_237
*1359 FILLER_0_38_249
*1360 FILLER_0_38_253
*1361 FILLER_0_38_262
*1362 FILLER_0_38_278
*1363 FILLER_0_38_287
*1364 FILLER_0_38_294
*1365 FILLER_0_38_298
*1366 FILLER_0_38_302
*1367 FILLER_0_38_32
*1368 FILLER_0_38_330
*1369 FILLER_0_38_38
*1370 FILLER_0_38_42
*1371 FILLER_0_38_46
*1372 FILLER_0_38_50
*1373 FILLER_0_38_54
*1374 FILLER_0_38_57
*1375 FILLER_0_38_6
*1376 FILLER_0_38_62
*1377 FILLER_0_38_74
*1378 FILLER_0_38_78
*1379 FILLER_0_38_88
*1380 FILLER_0_38_94
*1381 FILLER_0_38_98
*1382 FILLER_0_3_105
*1383 FILLER_0_3_111
*1384 FILLER_0_3_113
*1385 FILLER_0_3_125
*1386 FILLER_0_3_137
*1387 FILLER_0_3_149
*1388 FILLER_0_3_15
*1389 FILLER_0_3_161
*1390 FILLER_0_3_167
*1391 FILLER_0_3_169
*1392 FILLER_0_3_181
*1393 FILLER_0_3_193
*1394 FILLER_0_3_205
*1395 FILLER_0_3_217
*1396 FILLER_0_3_223
*1397 FILLER_0_3_225
*1398 FILLER_0_3_237
*1399 FILLER_0_3_249
*1400 FILLER_0_3_261
*1401 FILLER_0_3_27
*1402 FILLER_0_3_273
*1403 FILLER_0_3_279
*1404 FILLER_0_3_281
*1405 FILLER_0_3_293
*1406 FILLER_0_3_3
*1407 FILLER_0_3_305
*1408 FILLER_0_3_317
*1409 FILLER_0_3_329
*1410 FILLER_0_3_39
*1411 FILLER_0_3_51
*1412 FILLER_0_3_55
*1413 FILLER_0_3_57
*1414 FILLER_0_3_69
*1415 FILLER_0_3_81
*1416 FILLER_0_3_93
*1417 FILLER_0_4_109
*1418 FILLER_0_4_121
*1419 FILLER_0_4_133
*1420 FILLER_0_4_139
*1421 FILLER_0_4_141
*1422 FILLER_0_4_15
*1423 FILLER_0_4_153
*1424 FILLER_0_4_165
*1425 FILLER_0_4_177
*1426 FILLER_0_4_189
*1427 FILLER_0_4_195
*1428 FILLER_0_4_197
*1429 FILLER_0_4_209
*1430 FILLER_0_4_221
*1431 FILLER_0_4_233
*1432 FILLER_0_4_245
*1433 FILLER_0_4_251
*1434 FILLER_0_4_253
*1435 FILLER_0_4_265
*1436 FILLER_0_4_27
*1437 FILLER_0_4_277
*1438 FILLER_0_4_289
*1439 FILLER_0_4_29
*1440 FILLER_0_4_3
*1441 FILLER_0_4_301
*1442 FILLER_0_4_307
*1443 FILLER_0_4_309
*1444 FILLER_0_4_321
*1445 FILLER_0_4_333
*1446 FILLER_0_4_41
*1447 FILLER_0_4_53
*1448 FILLER_0_4_65
*1449 FILLER_0_4_77
*1450 FILLER_0_4_83
*1451 FILLER_0_4_85
*1452 FILLER_0_4_97
*1453 FILLER_0_5_105
*1454 FILLER_0_5_111
*1455 FILLER_0_5_113
*1456 FILLER_0_5_125
*1457 FILLER_0_5_137
*1458 FILLER_0_5_149
*1459 FILLER_0_5_15
*1460 FILLER_0_5_161
*1461 FILLER_0_5_167
*1462 FILLER_0_5_169
*1463 FILLER_0_5_181
*1464 FILLER_0_5_193
*1465 FILLER_0_5_205
*1466 FILLER_0_5_217
*1467 FILLER_0_5_223
*1468 FILLER_0_5_225
*1469 FILLER_0_5_237
*1470 FILLER_0_5_249
*1471 FILLER_0_5_261
*1472 FILLER_0_5_27
*1473 FILLER_0_5_273
*1474 FILLER_0_5_279
*1475 FILLER_0_5_281
*1476 FILLER_0_5_293
*1477 FILLER_0_5_3
*1478 FILLER_0_5_305
*1479 FILLER_0_5_317
*1480 FILLER_0_5_329
*1481 FILLER_0_5_39
*1482 FILLER_0_5_51
*1483 FILLER_0_5_55
*1484 FILLER_0_5_57
*1485 FILLER_0_5_69
*1486 FILLER_0_5_81
*1487 FILLER_0_5_93
*1488 FILLER_0_6_109
*1489 FILLER_0_6_121
*1490 FILLER_0_6_133
*1491 FILLER_0_6_139
*1492 FILLER_0_6_141
*1493 FILLER_0_6_15
*1494 FILLER_0_6_153
*1495 FILLER_0_6_165
*1496 FILLER_0_6_177
*1497 FILLER_0_6_189
*1498 FILLER_0_6_195
*1499 FILLER_0_6_197
*1500 FILLER_0_6_209
*1501 FILLER_0_6_221
*1502 FILLER_0_6_233
*1503 FILLER_0_6_245
*1504 FILLER_0_6_251
*1505 FILLER_0_6_253
*1506 FILLER_0_6_265
*1507 FILLER_0_6_27
*1508 FILLER_0_6_277
*1509 FILLER_0_6_289
*1510 FILLER_0_6_29
*1511 FILLER_0_6_3
*1512 FILLER_0_6_301
*1513 FILLER_0_6_307
*1514 FILLER_0_6_309
*1515 FILLER_0_6_321
*1516 FILLER_0_6_333
*1517 FILLER_0_6_41
*1518 FILLER_0_6_53
*1519 FILLER_0_6_65
*1520 FILLER_0_6_77
*1521 FILLER_0_6_83
*1522 FILLER_0_6_85
*1523 FILLER_0_6_97
*1524 FILLER_0_7_105
*1525 FILLER_0_7_111
*1526 FILLER_0_7_113
*1527 FILLER_0_7_125
*1528 FILLER_0_7_137
*1529 FILLER_0_7_149
*1530 FILLER_0_7_15
*1531 FILLER_0_7_161
*1532 FILLER_0_7_167
*1533 FILLER_0_7_169
*1534 FILLER_0_7_181
*1535 FILLER_0_7_193
*1536 FILLER_0_7_205
*1537 FILLER_0_7_217
*1538 FILLER_0_7_223
*1539 FILLER_0_7_225
*1540 FILLER_0_7_237
*1541 FILLER_0_7_249
*1542 FILLER_0_7_261
*1543 FILLER_0_7_27
*1544 FILLER_0_7_273
*1545 FILLER_0_7_279
*1546 FILLER_0_7_281
*1547 FILLER_0_7_293
*1548 FILLER_0_7_3
*1549 FILLER_0_7_305
*1550 FILLER_0_7_317
*1551 FILLER_0_7_329
*1552 FILLER_0_7_39
*1553 FILLER_0_7_51
*1554 FILLER_0_7_55
*1555 FILLER_0_7_57
*1556 FILLER_0_7_69
*1557 FILLER_0_7_81
*1558 FILLER_0_7_93
*1559 FILLER_0_8_109
*1560 FILLER_0_8_121
*1561 FILLER_0_8_133
*1562 FILLER_0_8_139
*1563 FILLER_0_8_141
*1564 FILLER_0_8_15
*1565 FILLER_0_8_153
*1566 FILLER_0_8_165
*1567 FILLER_0_8_177