*SPEF "ieee 1481-1999"
*DESIGN "tt_um_nubcore_default_tape"
*DATE "00:56:30 Monday April 15, 2024"
*VENDOR "The OpenROAD Project"
*PROGRAM "OpenROAD"
*VERSION "0889970d1790a2617e69f253221b8bd7626e51dc"
*DESIGN_FLOW "NAME_SCOPE LOCAL" "PIN_CAP NONE"
*DIVIDER /
*DELIMITER :
*BUS_DELIMITER []
*T_UNIT 1 NS
*C_UNIT 1 PF
*R_UNIT 1 OHM
*L_UNIT 1 HENRY

*NAME_MAP
*3 clk
*4 ena
*5 rst_n
*6 ui_in[0]
*7 ui_in[1]
*8 ui_in[2]
*9 ui_in[3]
*10 ui_in[4]
*11 ui_in[5]
*12 ui_in[6]
*13 ui_in[7]
*14 uio_in[0]
*15 uio_in[1]
*16 uio_in[2]
*17 uio_in[3]
*18 uio_in[4]
*19 uio_in[5]
*20 uio_in[6]
*21 uio_in[7]
*22 net13
*23 net14
*24 net15
*25 net16
*26 net17
*27 net18
*28 net19
*29 net20
*30 uio_out[0]
*31 uio_out[1]
*32 uio_out[2]
*33 uio_out[3]
*34 uio_out[4]
*35 uio_out[5]
*36 uio_out[6]
*37 uio_out[7]
*38 uo_out[0]
*39 uo_out[1]
*40 uo_out[2]
*41 uo_out[3]
*42 uo_out[4]
*43 uo_out[5]
*44 uo_out[6]
*45 net12
*46 _000_
*47 _001_
*48 _002_
*49 _003_
*50 _004_
*51 _005_
*52 _006_
*53 _007_
*54 _008_
*55 _009_
*56 _010_
*57 _011_
*58 _012_
*59 _013_
*60 _014_
*61 _015_
*62 _016_
*63 _017_
*64 _018_
*65 _019_
*66 _020_
*67 _021_
*68 _022_
*69 _023_
*70 _024_
*71 _025_
*72 _026_
*73 _027_
*74 _028_
*75 _029_
*76 _030_
*77 _031_
*78 _032_
*79 _033_
*80 _034_
*81 _035_
*82 _036_
*83 _037_
*84 _038_
*85 _039_
*86 _040_
*87 _041_
*88 _042_
*89 _043_
*90 _044_
*91 _045_
*92 _046_
*93 _047_
*94 _048_
*95 _049_
*96 _050_
*97 _051_
*98 _052_
*99 _053_
*100 _054_
*101 _055_
*102 _056_
*103 _057_
*104 _058_
*105 _059_
*106 _060_
*107 _061_
*108 _062_
*109 _063_
*110 _064_
*111 _065_
*112 _066_
*113 _067_
*114 _068_
*115 _069_
*116 _070_
*117 _071_
*118 _072_
*119 _073_
*120 _074_
*121 _075_
*122 _076_
*123 _077_
*124 _078_
*125 _079_
*126 _080_
*127 _081_
*128 _082_
*129 _083_
*130 _084_
*131 _085_
*132 _086_
*133 _087_
*134 _088_
*135 _089_
*136 _090_
*137 _091_
*138 _092_
*139 _093_
*140 _094_
*141 _095_
*142 _096_
*143 _097_
*144 _098_
*145 _099_
*146 _100_
*147 _101_
*148 _102_
*149 _103_
*150 _104_
*151 _105_
*152 _106_
*153 _107_
*154 _108_
*155 _109_
*156 _110_
*157 _111_
*158 _112_
*159 _113_
*160 _114_
*161 _115_
*162 _116_
*163 _117_
*164 _118_
*165 _119_
*166 _120_
*167 _121_
*168 _122_
*169 _123_
*170 _124_
*171 _125_
*172 _126_
*173 _127_
*174 _128_
*175 _129_
*176 _130_
*177 _131_
*178 _132_
*179 _133_
*180 _134_
*181 _135_
*182 _136_
*183 _137_
*184 _138_
*185 _139_
*186 _140_
*187 _141_
*188 _142_
*189 _143_
*190 _144_
*191 _145_
*192 _146_
*193 _147_
*194 _148_
*195 _149_
*196 _150_
*197 _151_
*198 _152_
*199 _153_
*200 _154_
*201 clknet_0_clk
*202 clknet_2_0__leaf_clk
*203 clknet_2_1__leaf_clk
*204 clknet_2_2__leaf_clk
*205 clknet_2_3__leaf_clk
*206 net1
*207 net10
*208 net11
*209 net2
*210 net21
*211 net22
*212 net23
*213 net24
*214 net25
*215 net26
*216 net27
*217 net28
*218 net29
*219 net3
*220 net30
*221 net4
*222 net5
*223 net6
*224 net7
*225 net8
*226 net9
*227 second_counter\[0\]
*228 second_counter\[10\]
*229 second_counter\[11\]
*230 second_counter\[12\]
*231 second_counter\[13\]
*232 second_counter\[14\]
*233 second_counter\[15\]
*234 second_counter\[16\]
*235 second_counter\[17\]
*236 second_counter\[18\]
*237 second_counter\[19\]
*238 second_counter\[1\]
*239 second_counter\[20\]
*240 second_counter\[21\]
*241 second_counter\[22\]
*242 second_counter\[23\]
*243 second_counter\[2\]
*244 second_counter\[3\]
*245 second_counter\[4\]
*246 second_counter\[5\]
*247 second_counter\[6\]
*248 second_counter\[7\]
*249 second_counter\[8\]
*250 second_counter\[9\]
*251 seg7\.counter\[0\]
*252 seg7\.counter\[1\]
*253 seg7\.counter\[2\]
*254 seg7\.counter\[3\]
*255 FILLER_0_0_109
*256 FILLER_0_0_113
*257 FILLER_0_0_125
*258 FILLER_0_0_137
*259 FILLER_0_0_141
*260 FILLER_0_0_15
*261 FILLER_0_0_153
*262 FILLER_0_0_165
*263 FILLER_0_0_169
*264 FILLER_0_0_181
*265 FILLER_0_0_193
*266 FILLER_0_0_197
*267 FILLER_0_0_209
*268 FILLER_0_0_221
*269 FILLER_0_0_225
*270 FILLER_0_0_237
*271 FILLER_0_0_249
*272 FILLER_0_0_253
*273 FILLER_0_0_265
*274 FILLER_0_0_27
*275 FILLER_0_0_277
*276 FILLER_0_0_281
*277 FILLER_0_0_29
*278 FILLER_0_0_293
*279 FILLER_0_0_3
*280 FILLER_0_0_305
*281 FILLER_0_0_309
*282 FILLER_0_0_321
*283 FILLER_0_0_333
*284 FILLER_0_0_41
*285 FILLER_0_0_53
*286 FILLER_0_0_57
*287 FILLER_0_0_69
*288 FILLER_0_0_81
*289 FILLER_0_0_85
*290 FILLER_0_0_97
*291 FILLER_0_10_109
*292 FILLER_0_10_121
*293 FILLER_0_10_133
*294 FILLER_0_10_139
*295 FILLER_0_10_141
*296 FILLER_0_10_15
*297 FILLER_0_10_153
*298 FILLER_0_10_165
*299 FILLER_0_10_177
*300 FILLER_0_10_189
*301 FILLER_0_10_195
*302 FILLER_0_10_197
*303 FILLER_0_10_209
*304 FILLER_0_10_221
*305 FILLER_0_10_233
*306 FILLER_0_10_245
*307 FILLER_0_10_251
*308 FILLER_0_10_253
*309 FILLER_0_10_265
*310 FILLER_0_10_27
*311 FILLER_0_10_277
*312 FILLER_0_10_289
*313 FILLER_0_10_29
*314 FILLER_0_10_3
*315 FILLER_0_10_301
*316 FILLER_0_10_307
*317 FILLER_0_10_309
*318 FILLER_0_10_321
*319 FILLER_0_10_333
*320 FILLER_0_10_41
*321 FILLER_0_10_53
*322 FILLER_0_10_65
*323 FILLER_0_10_77
*324 FILLER_0_10_83
*325 FILLER_0_10_85
*326 FILLER_0_10_97
*327 FILLER_0_11_105
*328 FILLER_0_11_111
*329 FILLER_0_11_113
*330 FILLER_0_11_125
*331 FILLER_0_11_137
*332 FILLER_0_11_149
*333 FILLER_0_11_15
*334 FILLER_0_11_161
*335 FILLER_0_11_167
*336 FILLER_0_11_169
*337 FILLER_0_11_181
*338 FILLER_0_11_193
*339 FILLER_0_11_205
*340 FILLER_0_11_217
*341 FILLER_0_11_223
*342 FILLER_0_11_225
*343 FILLER_0_11_237
*344 FILLER_0_11_249
*345 FILLER_0_11_261
*346 FILLER_0_11_27
*347 FILLER_0_11_273
*348 FILLER_0_11_279
*349 FILLER_0_11_281
*350 FILLER_0_11_293
*351 FILLER_0_11_3
*352 FILLER_0_11_305
*353 FILLER_0_11_317
*354 FILLER_0_11_329
*355 FILLER_0_11_39
*356 FILLER_0_11_51
*357 FILLER_0_11_55
*358 FILLER_0_11_57
*359 FILLER_0_11_69
*360 FILLER_0_11_81
*361 FILLER_0_11_93
*362 FILLER_0_12_109
*363 FILLER_0_12_121
*364 FILLER_0_12_133
*365 FILLER_0_12_139
*366 FILLER_0_12_141
*367 FILLER_0_12_15
*368 FILLER_0_12_153
*369 FILLER_0_12_165
*370 FILLER_0_12_177
*371 FILLER_0_12_189
*372 FILLER_0_12_195
*373 FILLER_0_12_197
*374 FILLER_0_12_209
*375 FILLER_0_12_221
*376 FILLER_0_12_233
*377 FILLER_0_12_245
*378 FILLER_0_12_251
*379 FILLER_0_12_253
*380 FILLER_0_12_265
*381 FILLER_0_12_27
*382 FILLER_0_12_277
*383 FILLER_0_12_289
*384 FILLER_0_12_29
*385 FILLER_0_12_3
*386 FILLER_0_12_301
*387 FILLER_0_12_307
*388 FILLER_0_12_309
*389 FILLER_0_12_321
*390 FILLER_0_12_333
*391 FILLER_0_12_41
*392 FILLER_0_12_53
*393 FILLER_0_12_65
*394 FILLER_0_12_77
*395 FILLER_0_12_83
*396 FILLER_0_12_85
*397 FILLER_0_12_97
*398 FILLER_0_13_105
*399 FILLER_0_13_111
*400 FILLER_0_13_113
*401 FILLER_0_13_125
*402 FILLER_0_13_137
*403 FILLER_0_13_149
*404 FILLER_0_13_15
*405 FILLER_0_13_161
*406 FILLER_0_13_167
*407 FILLER_0_13_169
*408 FILLER_0_13_181
*409 FILLER_0_13_193
*410 FILLER_0_13_205
*411 FILLER_0_13_217
*412 FILLER_0_13_223
*413 FILLER_0_13_225
*414 FILLER_0_13_237
*415 FILLER_0_13_249
*416 FILLER_0_13_261
*417 FILLER_0_13_27
*418 FILLER_0_13_273
*419 FILLER_0_13_279
*420 FILLER_0_13_281
*421 FILLER_0_13_293
*422 FILLER_0_13_3
*423 FILLER_0_13_305
*424 FILLER_0_13_317
*425 FILLER_0_13_329
*426 FILLER_0_13_39
*427 FILLER_0_13_51
*428 FILLER_0_13_55
*429 FILLER_0_13_57
*430 FILLER_0_13_69
*431 FILLER_0_13_81
*432 FILLER_0_13_93
*433 FILLER_0_14_109
*434 FILLER_0_14_121
*435 FILLER_0_14_133
*436 FILLER_0_14_139
*437 FILLER_0_14_141
*438 FILLER_0_14_15
*439 FILLER_0_14_153
*440 FILLER_0_14_165
*441 FILLER_0_14_177
*442 FILLER_0_14_189
*443 FILLER_0_14_195
*444 FILLER_0_14_197
*445 FILLER_0_14_209
*446 FILLER_0_14_221
*447 FILLER_0_14_233
*448 FILLER_0_14_245
*449 FILLER_0_14_251
*450 FILLER_0_14_253
*451 FILLER_0_14_265
*452 FILLER_0_14_27
*453 FILLER_0_14_277
*454 FILLER_0_14_289
*455 FILLER_0_14_29
*456 FILLER_0_14_3
*457 FILLER_0_14_301
*458 FILLER_0_14_307
*459 FILLER_0_14_309
*460 FILLER_0_14_321
*461 FILLER_0_14_333
*462 FILLER_0_14_41
*463 FILLER_0_14_53
*464 FILLER_0_14_65
*465 FILLER_0_14_77
*466 FILLER_0_14_83
*467 FILLER_0_14_85
*468 FILLER_0_14_97
*469 FILLER_0_15_105
*470 FILLER_0_15_111
*471 FILLER_0_15_113
*472 FILLER_0_15_125
*473 FILLER_0_15_137
*474 FILLER_0_15_149
*475 FILLER_0_15_15
*476 FILLER_0_15_161
*477 FILLER_0_15_167
*478 FILLER_0_15_169
*479 FILLER_0_15_181
*480 FILLER_0_15_193
*481 FILLER_0_15_205
*482 FILLER_0_15_217
*483 FILLER_0_15_223
*484 FILLER_0_15_225
*485 FILLER_0_15_237
*486 FILLER_0_15_249
*487 FILLER_0_15_261
*488 FILLER_0_15_27
*489 FILLER_0_15_273
*490 FILLER_0_15_279
*491 FILLER_0_15_281
*492 FILLER_0_15_293
*493 FILLER_0_15_3
*494 FILLER_0_15_305
*495 FILLER_0_15_317
*496 FILLER_0_15_329
*497 FILLER_0_15_39
*498 FILLER_0_15_51
*499 FILLER_0_15_55
*500 FILLER_0_15_57
*501 FILLER_0_15_69
*502 FILLER_0_15_81
*503 FILLER_0_15_93
*504 FILLER_0_16_109
*505 FILLER_0_16_121
*506 FILLER_0_16_133
*507 FILLER_0_16_139
*508 FILLER_0_16_141
*509 FILLER_0_16_15
*510 FILLER_0_16_153
*511 FILLER_0_16_165
*512 FILLER_0_16_177
*513 FILLER_0_16_189
*514 FILLER_0_16_195
*515 FILLER_0_16_197
*516 FILLER_0_16_209
*517 FILLER_0_16_221
*518 FILLER_0_16_233
*519 FILLER_0_16_245
*520 FILLER_0_16_251
*521 FILLER_0_16_253
*522 FILLER_0_16_265
*523 FILLER_0_16_27
*524 FILLER_0_16_277
*525 FILLER_0_16_289
*526 FILLER_0_16_29
*527 FILLER_0_16_3
*528 FILLER_0_16_301
*529 FILLER_0_16_307
*530 FILLER_0_16_309
*531 FILLER_0_16_321
*532 FILLER_0_16_333
*533 FILLER_0_16_41
*534 FILLER_0_16_53
*535 FILLER_0_16_65
*536 FILLER_0_16_77
*537 FILLER_0_16_83
*538 FILLER_0_16_85
*539 FILLER_0_16_97
*540 FILLER_0_17_105
*541 FILLER_0_17_111
*542 FILLER_0_17_113
*543 FILLER_0_17_125
*544 FILLER_0_17_137
*545 FILLER_0_17_149
*546 FILLER_0_17_15
*547 FILLER_0_17_161
*548 FILLER_0_17_167
*549 FILLER_0_17_169
*550 FILLER_0_17_181
*551 FILLER_0_17_193
*552 FILLER_0_17_205
*553 FILLER_0_17_217
*554 FILLER_0_17_223
*555 FILLER_0_17_225
*556 FILLER_0_17_237
*557 FILLER_0_17_249
*558 FILLER_0_17_261
*559 FILLER_0_17_27
*560 FILLER_0_17_273
*561 FILLER_0_17_279
*562 FILLER_0_17_281
*563 FILLER_0_17_293
*564 FILLER_0_17_3
*565 FILLER_0_17_305
*566 FILLER_0_17_317
*567 FILLER_0_17_329
*568 FILLER_0_17_39
*569 FILLER_0_17_51
*570 FILLER_0_17_55
*571 FILLER_0_17_57
*572 FILLER_0_17_69
*573 FILLER_0_17_81
*574 FILLER_0_17_93
*575 FILLER_0_18_109
*576 FILLER_0_18_121
*577 FILLER_0_18_133
*578 FILLER_0_18_139
*579 FILLER_0_18_141
*580 FILLER_0_18_15
*581 FILLER_0_18_153
*582 FILLER_0_18_165
*583 FILLER_0_18_177
*584 FILLER_0_18_189
*585 FILLER_0_18_195
*586 FILLER_0_18_197
*587 FILLER_0_18_209
*588 FILLER_0_18_221
*589 FILLER_0_18_233
*590 FILLER_0_18_245
*591 FILLER_0_18_251
*592 FILLER_0_18_253
*593 FILLER_0_18_265
*594 FILLER_0_18_27
*595 FILLER_0_18_277
*596 FILLER_0_18_289
*597 FILLER_0_18_29
*598 FILLER_0_18_3
*599 FILLER_0_18_301
*600 FILLER_0_18_307
*601 FILLER_0_18_309
*602 FILLER_0_18_321
*603 FILLER_0_18_333
*604 FILLER_0_18_41
*605 FILLER_0_18_53
*606 FILLER_0_18_65
*607 FILLER_0_18_77
*608 FILLER_0_18_83
*609 FILLER_0_18_85
*610 FILLER_0_18_97
*611 FILLER_0_19_105
*612 FILLER_0_19_111
*613 FILLER_0_19_113
*614 FILLER_0_19_125
*615 FILLER_0_19_137
*616 FILLER_0_19_149
*617 FILLER_0_19_15
*618 FILLER_0_19_161
*619 FILLER_0_19_167
*620 FILLER_0_19_169
*621 FILLER_0_19_181
*622 FILLER_0_19_193
*623 FILLER_0_19_205
*624 FILLER_0_19_217
*625 FILLER_0_19_223
*626 FILLER_0_19_225
*627 FILLER_0_19_237
*628 FILLER_0_19_249
*629 FILLER_0_19_261
*630 FILLER_0_19_27
*631 FILLER_0_19_273
*632 FILLER_0_19_279
*633 FILLER_0_19_281
*634 FILLER_0_19_293
*635 FILLER_0_19_3
*636 FILLER_0_19_305
*637 FILLER_0_19_317
*638 FILLER_0_19_329
*639 FILLER_0_19_39
*640 FILLER_0_19_51
*641 FILLER_0_19_55
*642 FILLER_0_19_57
*643 FILLER_0_19_69
*644 FILLER_0_19_81
*645 FILLER_0_19_93
*646 FILLER_0_1_105
*647 FILLER_0_1_111
*648 FILLER_0_1_113
*649 FILLER_0_1_125
*650 FILLER_0_1_137
*651 FILLER_0_1_149
*652 FILLER_0_1_15
*653 FILLER_0_1_161
*654 FILLER_0_1_167
*655 FILLER_0_1_169
*656 FILLER_0_1_181
*657 FILLER_0_1_193
*658 FILLER_0_1_205
*659 FILLER_0_1_217
*660 FILLER_0_1_223
*661 FILLER_0_1_225
*662 FILLER_0_1_237
*663 FILLER_0_1_249
*664 FILLER_0_1_261
*665 FILLER_0_1_27
*666 FILLER_0_1_273
*667 FILLER_0_1_279
*668 FILLER_0_1_281
*669 FILLER_0_1_293
*670 FILLER_0_1_3
*671 FILLER_0_1_305
*672 FILLER_0_1_317
*673 FILLER_0_1_329
*674 FILLER_0_1_39
*675 FILLER_0_1_51
*676 FILLER_0_1_55
*677 FILLER_0_1_57
*678 FILLER_0_1_69
*679 FILLER_0_1_81
*680 FILLER_0_1_93
*681 FILLER_0_20_109
*682 FILLER_0_20_121
*683 FILLER_0_20_133
*684 FILLER_0_20_139
*685 FILLER_0_20_141
*686 FILLER_0_20_15
*687 FILLER_0_20_153
*688 FILLER_0_20_165
*689 FILLER_0_20_177
*690 FILLER_0_20_189
*691 FILLER_0_20_195
*692 FILLER_0_20_197
*693 FILLER_0_20_209
*694 FILLER_0_20_221
*695 FILLER_0_20_233
*696 FILLER_0_20_245
*697 FILLER_0_20_251
*698 FILLER_0_20_253
*699 FILLER_0_20_265
*700 FILLER_0_20_27
*701 FILLER_0_20_277
*702 FILLER_0_20_289
*703 FILLER_0_20_29
*704 FILLER_0_20_3
*705 FILLER_0_20_301
*706 FILLER_0_20_307
*707 FILLER_0_20_309
*708 FILLER_0_20_321
*709 FILLER_0_20_333
*710 FILLER_0_20_41
*711 FILLER_0_20_53
*712 FILLER_0_20_65
*713 FILLER_0_20_77
*714 FILLER_0_20_83
*715 FILLER_0_20_85
*716 FILLER_0_20_97
*717 FILLER_0_21_105
*718 FILLER_0_21_111
*719 FILLER_0_21_113
*720 FILLER_0_21_125
*721 FILLER_0_21_137
*722 FILLER_0_21_149
*723 FILLER_0_21_15
*724 FILLER_0_21_161
*725 FILLER_0_21_167
*726 FILLER_0_21_169
*727 FILLER_0_21_181
*728 FILLER_0_21_193
*729 FILLER_0_21_205
*730 FILLER_0_21_217
*731 FILLER_0_21_223
*732 FILLER_0_21_225
*733 FILLER_0_21_237
*734 FILLER_0_21_249
*735 FILLER_0_21_261
*736 FILLER_0_21_27
*737 FILLER_0_21_273
*738 FILLER_0_21_279
*739 FILLER_0_21_281
*740 FILLER_0_21_293
*741 FILLER_0_21_3
*742 FILLER_0_21_305
*743 FILLER_0_21_317
*744 FILLER_0_21_329
*745 FILLER_0_21_39
*746 FILLER_0_21_51
*747 FILLER_0_21_55
*748 FILLER_0_21_57
*749 FILLER_0_21_69
*750 FILLER_0_21_81
*751 FILLER_0_21_93
*752 FILLER_0_22_109
*753 FILLER_0_22_121
*754 FILLER_0_22_133
*755 FILLER_0_22_139
*756 FILLER_0_22_141
*757 FILLER_0_22_15
*758 FILLER_0_22_153
*759 FILLER_0_22_165
*760 FILLER_0_22_177
*761 FILLER_0_22_189
*762 FILLER_0_22_195
*763 FILLER_0_22_197
*764 FILLER_0_22_209
*765 FILLER_0_22_221
*766 FILLER_0_22_233
*767 FILLER_0_22_245
*768 FILLER_0_22_251
*769 FILLER_0_22_253
*770 FILLER_0_22_265
*771 FILLER_0_22_27
*772 FILLER_0_22_277
*773 FILLER_0_22_289
*774 FILLER_0_22_29
*775 FILLER_0_22_3
*776 FILLER_0_22_301
*777 FILLER_0_22_307
*778 FILLER_0_22_309
*779 FILLER_0_22_321
*780 FILLER_0_22_333
*781 FILLER_0_22_41
*782 FILLER_0_22_53
*783 FILLER_0_22_65
*784 FILLER_0_22_77
*785 FILLER_0_22_83
*786 FILLER_0_22_85
*787 FILLER_0_22_97
*788 FILLER_0_23_105
*789 FILLER_0_23_111
*790 FILLER_0_23_113
*791 FILLER_0_23_125
*792 FILLER_0_23_137
*793 FILLER_0_23_149
*794 FILLER_0_23_15
*795 FILLER_0_23_161
*796 FILLER_0_23_167
*797 FILLER_0_23_169
*798 FILLER_0_23_181
*799 FILLER_0_23_193
*800 FILLER_0_23_205
*801 FILLER_0_23_217
*802 FILLER_0_23_223
*803 FILLER_0_23_225
*804 FILLER_0_23_237
*805 FILLER_0_23_249
*806 FILLER_0_23_261
*807 FILLER_0_23_27
*808 FILLER_0_23_273
*809 FILLER_0_23_279
*810 FILLER_0_23_281
*811 FILLER_0_23_293
*812 FILLER_0_23_3
*813 FILLER_0_23_305
*814 FILLER_0_23_317
*815 FILLER_0_23_329
*816 FILLER_0_23_39
*817 FILLER_0_23_51
*818 FILLER_0_23_55
*819 FILLER_0_23_57
*820 FILLER_0_23_69
*821 FILLER_0_23_81
*822 FILLER_0_23_93
*823 FILLER_0_24_109
*824 FILLER_0_24_121
*825 FILLER_0_24_133
*826 FILLER_0_24_139
*827 FILLER_0_24_141
*828 FILLER_0_24_15
*829 FILLER_0_24_153
*830 FILLER_0_24_165
*831 FILLER_0_24_177
*832 FILLER_0_24_189
*833 FILLER_0_24_195
*834 FILLER_0_24_197
*835 FILLER_0_24_209
*836 FILLER_0_24_221
*837 FILLER_0_24_233
*838 FILLER_0_24_245
*839 FILLER_0_24_251
*840 FILLER_0_24_253
*841 FILLER_0_24_265
*842 FILLER_0_24_27
*843 FILLER_0_24_277
*844 FILLER_0_24_289
*845 FILLER_0_24_29
*846 FILLER_0_24_3
*847 FILLER_0_24_301
*848 FILLER_0_24_307
*849 FILLER_0_24_309
*850 FILLER_0_24_321
*851 FILLER_0_24_333
*852 FILLER_0_24_41
*853 FILLER_0_24_53
*854 FILLER_0_24_65
*855 FILLER_0_24_77
*856 FILLER_0_24_83
*857 FILLER_0_24_85
*858 FILLER_0_24_97
*859 FILLER_0_25_105
*860 FILLER_0_25_111
*861 FILLER_0_25_113
*862 FILLER_0_25_125
*863 FILLER_0_25_137
*864 FILLER_0_25_149
*865 FILLER_0_25_15
*866 FILLER_0_25_161
*867 FILLER_0_25_167
*868 FILLER_0_25_169
*869 FILLER_0_25_181
*870 FILLER_0_25_193
*871 FILLER_0_25_205
*872 FILLER_0_25_217
*873 FILLER_0_25_223
*874 FILLER_0_25_225
*875 FILLER_0_25_237
*876 FILLER_0_25_249
*877 FILLER_0_25_261
*878 FILLER_0_25_27
*879 FILLER_0_25_273
*880 FILLER_0_25_279
*881 FILLER_0_25_281
*882 FILLER_0_25_293
*883 FILLER_0_25_3
*884 FILLER_0_25_305
*885 FILLER_0_25_317
*886 FILLER_0_25_329
*887 FILLER_0_25_39
*888 FILLER_0_25_51
*889 FILLER_0_25_55
*890 FILLER_0_25_57
*891 FILLER_0_25_69
*892 FILLER_0_25_81
*893 FILLER_0_25_93
*894 FILLER_0_26_109
*895 FILLER_0_26_121
*896 FILLER_0_26_133
*897 FILLER_0_26_139
*898 FILLER_0_26_141
*899 FILLER_0_26_15
*900 FILLER_0_26_153
*901 FILLER_0_26_165
*902 FILLER_0_26_177
*903 FILLER_0_26_189
*904 FILLER_0_26_195
*905 FILLER_0_26_197
*906 FILLER_0_26_209
*907 FILLER_0_26_221
*908 FILLER_0_26_233
*909 FILLER_0_26_245
*910 FILLER_0_26_251
*911 FILLER_0_26_253
*912 FILLER_0_26_265
*913 FILLER_0_26_27
*914 FILLER_0_26_277
*915 FILLER_0_26_289
*916 FILLER_0_26_29
*917 FILLER_0_26_3
*918 FILLER_0_26_301
*919 FILLER_0_26_307
*920 FILLER_0_26_309
*921 FILLER_0_26_321
*922 FILLER_0_26_333
*923 FILLER_0_26_41
*924 FILLER_0_26_53
*925 FILLER_0_26_65
*926 FILLER_0_26_77
*927 FILLER_0_26_83
*928 FILLER_0_26_85
*929 FILLER_0_26_97
*930 FILLER_0_27_105
*931 FILLER_0_27_111
*932 FILLER_0_27_113
*933 FILLER_0_27_125
*934 FILLER_0_27_137
*935 FILLER_0_27_149
*936 FILLER_0_27_15
*937 FILLER_0_27_161
*938 FILLER_0_27_167
*939 FILLER_0_27_169
*940 FILLER_0_27_181
*941 FILLER_0_27_193
*942 FILLER_0_27_205
*943 FILLER_0_27_217
*944 FILLER_0_27_223
*945 FILLER_0_27_225
*946 FILLER_0_27_237
*947 FILLER_0_27_249
*948 FILLER_0_27_261
*949 FILLER_0_27_27
*950 FILLER_0_27_273
*951 FILLER_0_27_279
*952 FILLER_0_27_281
*953 FILLER_0_27_293
*954 FILLER_0_27_3
*955 FILLER_0_27_305
*956 FILLER_0_27_317
*957 FILLER_0_27_329
*958 FILLER_0_27_39
*959 FILLER_0_27_51
*960 FILLER_0_27_55
*961 FILLER_0_27_57
*962 FILLER_0_27_69
*963 FILLER_0_27_81
*964 FILLER_0_27_93
*965 FILLER_0_28_109
*966 FILLER_0_28_121
*967 FILLER_0_28_133
*968 FILLER_0_28_139
*969 FILLER_0_28_141
*970 FILLER_0_28_15
*971 FILLER_0_28_153
*972 FILLER_0_28_165
*973 FILLER_0_28_171
*974 FILLER_0_28_176
*975 FILLER_0_28_188
*976 FILLER_0_28_197
*977 FILLER_0_28_209
*978 FILLER_0_28_221
*979 FILLER_0_28_233
*980 FILLER_0_28_245
*981 FILLER_0_28_251
*982 FILLER_0_28_253
*983 FILLER_0_28_258
*984 FILLER_0_28_266
*985 FILLER_0_28_27
*986 FILLER_0_28_272
*987 FILLER_0_28_276
*988 FILLER_0_28_285
*989 FILLER_0_28_29
*990 FILLER_0_28_297
*991 FILLER_0_28_3
*992 FILLER_0_28_305
*993 FILLER_0_28_309
*994 FILLER_0_28_321
*995 FILLER_0_28_333
*996 FILLER_0_28_41
*997 FILLER_0_28_53
*998 FILLER_0_28_65
*999 FILLER_0_28_77
*1000 FILLER_0_28_83
*1001 FILLER_0_28_85
*1002 FILLER_0_28_97
*1003 FILLER_0_29_109
*1004 FILLER_0_29_116
*1005 FILLER_0_29_128
*1006 FILLER_0_29_15
*1007 FILLER_0_29_156
*1008 FILLER_0_29_162
*1009 FILLER_0_29_167
*1010 FILLER_0_29_188
*1011 FILLER_0_29_200
*1012 FILLER_0_29_225
*1013 FILLER_0_29_237
*1014 FILLER_0_29_27
*1015 FILLER_0_29_273
*1016 FILLER_0_29_279
*1017 FILLER_0_29_3
*1018 FILLER_0_29_320
*1019 FILLER_0_29_332
*1020 FILLER_0_29_39
*1021 FILLER_0_29_51
*1022 FILLER_0_29_55
*1023 FILLER_0_29_57
*1024 FILLER_0_29_69
*1025 FILLER_0_29_81
*1026 FILLER_0_29_93
*1027 FILLER_0_29_97
*1028 FILLER_0_2_109
*1029 FILLER_0_2_121
*1030 FILLER_0_2_133
*1031 FILLER_0_2_139
*1032 FILLER_0_2_141
*1033 FILLER_0_2_15
*1034 FILLER_0_2_153
*1035 FILLER_0_2_165
*1036 FILLER_0_2_177
*1037 FILLER_0_2_189
*1038 FILLER_0_2_195
*1039 FILLER_0_2_197
*1040 FILLER_0_2_209
*1041 FILLER_0_2_221
*1042 FILLER_0_2_233
*1043 FILLER_0_2_245
*1044 FILLER_0_2_251
*1045 FILLER_0_2_253
*1046 FILLER_0_2_265
*1047 FILLER_0_2_27
*1048 FILLER_0_2_277
*1049 FILLER_0_2_289
*1050 FILLER_0_2_29
*1051 FILLER_0_2_3
*1052 FILLER_0_2_301
*1053 FILLER_0_2_307
*1054 FILLER_0_2_309
*1055 FILLER_0_2_321
*1056 FILLER_0_2_333
*1057 FILLER_0_2_41
*1058 FILLER_0_2_53
*1059 FILLER_0_2_65
*1060 FILLER_0_2_77
*1061 FILLER_0_2_83
*1062 FILLER_0_2_85
*1063 FILLER_0_2_97
*1064 FILLER_0_30_125
*1065 FILLER_0_30_137
*1066 FILLER_0_30_15
*1067 FILLER_0_30_157
*1068 FILLER_0_30_197
*1069 FILLER_0_30_232
*1070 FILLER_0_30_236
*1071 FILLER_0_30_251
*1072 FILLER_0_30_261
*1073 FILLER_0_30_27
*1074 FILLER_0_30_29
*1075 FILLER_0_30_299
*1076 FILLER_0_30_3
*1077 FILLER_0_30_303
*1078 FILLER_0_30_309
*1079 FILLER_0_30_321
*1080 FILLER_0_30_333
*1081 FILLER_0_30_41
*1082 FILLER_0_30_53
*1083 FILLER_0_30_65
*1084 FILLER_0_30_85
*1085 FILLER_0_31_105
*1086 FILLER_0_31_118
*1087 FILLER_0_31_130
*1088 FILLER_0_31_15
*1089 FILLER_0_31_154
*1090 FILLER_0_31_166
*1091 FILLER_0_31_174
*1092 FILLER_0_31_190
*1093 FILLER_0_31_202
*1094 FILLER_0_31_235
*1095 FILLER_0_31_246
*1096 FILLER_0_31_257
*1097 FILLER_0_31_27
*1098 FILLER_0_31_279
*1099 FILLER_0_31_281
*1100 FILLER_0_31_293
*1101 FILLER_0_31_3
*1102 FILLER_0_31_300
*1103 FILLER_0_31_312
*1104 FILLER_0_31_324
*1105 FILLER_0_31_332
*1106 FILLER_0_31_39
*1107 FILLER_0_31_51
*1108 FILLER_0_31_55
*1109 FILLER_0_31_57
*1110 FILLER_0_31_61
*1111 FILLER_0_31_98
*1112 FILLER_0_32_102
*1113 FILLER_0_32_107
*1114 FILLER_0_32_111
*1115 FILLER_0_32_123
*1116 FILLER_0_32_135
*1117 FILLER_0_32_139
*1118 FILLER_0_32_15
*1119 FILLER_0_32_160
*1120 FILLER_0_32_175
*1121 FILLER_0_32_191
*1122 FILLER_0_32_195
*1123 FILLER_0_32_197
*1124 FILLER_0_32_201
*1125 FILLER_0_32_227
*1126 FILLER_0_32_239
*1127 FILLER_0_32_251
*1128 FILLER_0_32_27
*1129 FILLER_0_32_271
*1130 FILLER_0_32_280
*1131 FILLER_0_32_288
*1132 FILLER_0_32_29
*1133 FILLER_0_32_3
*1134 FILLER_0_32_300
*1135 FILLER_0_32_315
*1136 FILLER_0_32_327
*1137 FILLER_0_32_41
*1138 FILLER_0_32_53
*1139 FILLER_0_32_65
*1140 FILLER_0_32_69
*1141 FILLER_0_32_83
*1142 FILLER_0_32_85
*1143 FILLER_0_32_98
*1144 FILLER_0_33_105
*1145 FILLER_0_33_109
*1146 FILLER_0_33_113
*1147 FILLER_0_33_121
*1148 FILLER_0_33_142
*1149 FILLER_0_33_15
*1150 FILLER_0_33_160
*1151 FILLER_0_33_167
*1152 FILLER_0_33_174
*1153 FILLER_0_33_182
*1154 FILLER_0_33_190
*1155 FILLER_0_33_202
*1156 FILLER_0_33_266
*1157 FILLER_0_33_27
*1158 FILLER_0_33_276
*1159 FILLER_0_33_287
*1160 FILLER_0_33_293
*1161 FILLER_0_33_3
*1162 FILLER_0_33_322
*1163 FILLER_0_33_334
*1164 FILLER_0_33_39
*1165 FILLER_0_33_51
*1166 FILLER_0_33_55
*1167 FILLER_0_33_57
*1168 FILLER_0_33_69
*1169 FILLER_0_33_77
*1170 FILLER_0_33_89
*1171 FILLER_0_34_105
*1172 FILLER_0_34_122
*1173 FILLER_0_34_134
*1174 FILLER_0_34_139
*1175 FILLER_0_34_15
*1176 FILLER_0_34_177
*1177 FILLER_0_34_189
*1178 FILLER_0_34_195
*1179 FILLER_0_34_225
*1180 FILLER_0_34_231
*1181 FILLER_0_34_240
*1182 FILLER_0_34_268
*1183 FILLER_0_34_27
*1184 FILLER_0_34_289
*1185 FILLER_0_34_29
*1186 FILLER_0_34_3
*1187 FILLER_0_34_301
*1188 FILLER_0_34_312
*1189 FILLER_0_34_330
*1190 FILLER_0_34_334
*1191 FILLER_0_34_41
*1192 FILLER_0_34_53
*1193 FILLER_0_34_65
*1194 FILLER_0_34_73
*1195 FILLER_0_34_80
*1196 FILLER_0_34_85
*1197 FILLER_0_34_97
*1198 FILLER_0_35_103
*1199 FILLER_0_35_111
*1200 FILLER_0_35_113
*1201 FILLER_0_35_124
*1202 FILLER_0_35_132
*1203 FILLER_0_35_15
*1204 FILLER_0_35_158
*1205 FILLER_0_35_165
*1206 FILLER_0_35_172
*1207 FILLER_0_35_177
*1208 FILLER_0_35_189
*1209 FILLER_0_35_202
*1210 FILLER_0_35_222
*1211 FILLER_0_35_230
*1212 FILLER_0_35_251
*1213 FILLER_0_35_259
*1214 FILLER_0_35_266
*1215 FILLER_0_35_27
*1216 FILLER_0_35_270
*1217 FILLER_0_35_279
*1218 FILLER_0_35_281
*1219 FILLER_0_35_293
*1220 FILLER_0_35_3
*1221 FILLER_0_35_319
*1222 FILLER_0_35_329
*1223 FILLER_0_35_39
*1224 FILLER_0_35_51
*1225 FILLER_0_35_55
*1226 FILLER_0_35_57
*1227 FILLER_0_35_65
*1228 FILLER_0_35_71
*1229 FILLER_0_35_84
*1230 FILLER_0_35_95
*1231 FILLER_0_36_134
*1232 FILLER_0_36_141
*1233 FILLER_0_36_15
*1234 FILLER_0_36_150
*1235 FILLER_0_36_154
*1236 FILLER_0_36_189
*1237 FILLER_0_36_195
*1238 FILLER_0_36_197
*1239 FILLER_0_36_201
*1240 FILLER_0_36_223
*1241 FILLER_0_36_236
*1242 FILLER_0_36_249
*1243 FILLER_0_36_253
*1244 FILLER_0_36_258
*1245 FILLER_0_36_27
*1246 FILLER_0_36_282
*1247 FILLER_0_36_29
*1248 FILLER_0_36_290
*1249 FILLER_0_36_297
*1250 FILLER_0_36_3
*1251 FILLER_0_36_325
*1252 FILLER_0_36_333
*1253 FILLER_0_36_41
*1254 FILLER_0_36_53
*1255 FILLER_0_36_61
*1256 FILLER_0_36_85
*1257 FILLER_0_36_89
*1258 FILLER_0_37_113
*1259 FILLER_0_37_15
*1260 FILLER_0_37_169
*1261 FILLER_0_37_173
*1262 FILLER_0_37_191
*1263 FILLER_0_37_221
*1264 FILLER_0_37_27
*1265 FILLER_0_37_281
*1266 FILLER_0_37_3
*1267 FILLER_0_37_307
*1268 FILLER_0_37_319
*1269 FILLER_0_37_331
*1270 FILLER_0_37_39
*1271 FILLER_0_37_51
*1272 FILLER_0_37_55
*1273 FILLER_0_37_57
*1274 FILLER_0_37_65
*1275 FILLER_0_37_99
*1276 FILLER_0_38_10
*1277 FILLER_0_38_113
*1278 FILLER_0_38_125
*1279 FILLER_0_38_134
*1280 FILLER_0_38_14
*1281 FILLER_0_38_141
*1282 FILLER_0_38_159
*1283 FILLER_0_38_167
*1284 FILLER_0_38_169
*1285 FILLER_0_38_18
*1286 FILLER_0_38_181
*1287 FILLER_0_38_193
*1288 FILLER_0_38_197
*1289 FILLER_0_38_209
*1290 FILLER_0_38_22
*1291 FILLER_0_38_221
*1292 FILLER_0_38_225
*1293 FILLER_0_38_230
*1294 FILLER_0_38_242
*1295 FILLER_0_38_250
*1296 FILLER_0_38_253
*1297 FILLER_0_38_257
*1298 FILLER_0_38_264
*1299 FILLER_0_38_270
*1300 FILLER_0_38_274
*1301 FILLER_0_38_278
*1302 FILLER_0_38_281
*1303 FILLER_0_38_286
*1304 FILLER_0_38_290
*1305 FILLER_0_38_294
*1306 FILLER_0_38_306
*1307 FILLER_0_38_312
*1308 FILLER_0_38_318
*1309 FILLER_0_38_32
*1310 FILLER_0_38_322
*1311 FILLER_0_38_327
*1312 FILLER_0_38_38
*1313 FILLER_0_38_42
*1314 FILLER_0_38_46
*1315 FILLER_0_38_50
*1316 FILLER_0_38_54
*1317 FILLER_0_38_57
*1318 FILLER_0_38_6
*1319 FILLER_0_38_62
*1320 FILLER_0_38_78
*1321 FILLER_0_38_85
*1322 FILLER_0_38_97
*1323 FILLER_0_3_105
*1324 FILLER_0_3_111
*1325 FILLER_0_3_113
*1326 FILLER_0_3_125
*1327 FILLER_0_3_137
*1328 FILLER_0_3_149
*1329 FILLER_0_3_15
*1330 FILLER_0_3_161
*1331 FILLER_0_3_167
*1332 FILLER_0_3_169
*1333 FILLER_0_3_181
*1334 FILLER_0_3_193
*1335 FILLER_0_3_205
*1336 FILLER_0_3_217
*1337 FILLER_0_3_223
*1338 FILLER_0_3_225
*1339 FILLER_0_3_237
*1340 FILLER_0_3_249
*1341 FILLER_0_3_261
*1342 FILLER_0_3_27
*1343 FILLER_0_3_273
*1344 FILLER_0_3_279
*1345 FILLER_0_3_281
*1346 FILLER_0_3_293
*1347 FILLER_0_3_3
*1348 FILLER_0_3_305
*1349 FILLER_0_3_317
*1350 FILLER_0_3_329
*1351 FILLER_0_3_39
*1352 FILLER_0_3_51
*1353 FILLER_0_3_55
*1354 FILLER_0_3_57
*1355 FILLER_0_3_69
*1356 FILLER_0_3_81
*1357 FILLER_0_3_93
*1358 FILLER_0_4_109
*1359 FILLER_0_4_121
*1360 FILLER_0_4_133
*1361 FILLER_0_4_139
*1362 FILLER_0_4_141
*1363 FILLER_0_4_15
*1364 FILLER_0_4_153
*1365 FILLER_0_4_165
*1366 FILLER_0_4_177
*1367 FILLER_0_4_189
*1368 FILLER_0_4_195
*1369 FILLER_0_4_197
*1370 FILLER_0_4_209
*1371 FILLER_0_4_221
*1372 FILLER_0_4_233
*1373 FILLER_0_4_245
*1374 FILLER_0_4_251
*1375 FILLER_0_4_253
*1376 FILLER_0_4_265
*1377 FILLER_0_4_27
*1378 FILLER_0_4_277
*1379 FILLER_0_4_289
*1380 FILLER_0_4_29
*1381 FILLER_0_4_3
*1382 FILLER_0_4_301
*1383 FILLER_0_4_307
*1384 FILLER_0_4_309
*1385 FILLER_0_4_321
*1386 FILLER_0_4_333
*1387 FILLER_0_4_41
*1388 FILLER_0_4_53
*1389 FILLER_0_4_65
*1390 FILLER_0_4_77
*1391 FILLER_0_4_83
*1392 FILLER_0_4_85
*1393 FILLER_0_4_97
*1394 FILLER_0_5_105
*1395 FILLER_0_5_111
*1396 FILLER_0_5_113
*1397 FILLER_0_5_125
*1398 FILLER_0_5_137
*1399 FILLER_0_5_149
*1400 FILLER_0_5_15
*1401 FILLER_0_5_161
*1402 FILLER_0_5_167
*1403 FILLER_0_5_169
*1404 FILLER_0_5_181
*1405 FILLER_0_5_193
*1406 FILLER_0_5_205
*1407 FILLER_0_5_217
*1408 FILLER_0_5_223
*1409 FILLER_0_5_225
*1410 FILLER_0_5_237
*1411 FILLER_0_5_249
*1412 FILLER_0_5_261
*1413 FILLER_0_5_27
*1414 FILLER_0_5_273
*1415 FILLER_0_5_279
*1416 FILLER_0_5_281
*1417 FILLER_0_5_293
*1418 FILLER_0_5_3
*1419 FILLER_0_5_305
*1420 FILLER_0_5_317
*1421 FILLER_0_5_329
*1422 FILLER_0_5_39
*1423 FILLER_0_5_51
*1424 FILLER_0_5_55
*1425 FILLER_0_5_57
*1426 FILLER_0_5_69
*1427 FILLER_0_5_81
*1428 FILLER_0_5_93
*1429 FILLER_0_6_109
*1430 FILLER_0_6_121
*1431 FILLER_0_6_133
*1432 FILLER_0_6_139
*1433 FILLER_0_6_141
*1434 FILLER_0_6_15
*1435 FILLER_0_6_153
*1436 FILLER_0_6_165
*1437 FILLER_0_6_177
*1438 FILLER_0_6_189
*1439 FILLER_0_6_195
*1440 FILLER_0_6_197
*1441 FILLER_0_6_209
*1442 FILLER_0_6_221
*1443 FILLER_0_6_233
*1444 FILLER_0_6_245
*1445 FILLER_0_6_251
*1446 FILLER_0_6_253
*1447 FILLER_0_6_265
*1448 FILLER_0_6_27
*1449 FILLER_0_6_277
*1450 FILLER_0_6_289
*1451 FILLER_0_6_29
*1452 FILLER_0_6_3
*1453 FILLER_0_6_301
*1454 FILLER_0_6_307
*1455 FILLER_0_6_309
*1456 FILLER_0_6_321
*1457 FILLER_0_6_333
*1458 FILLER_0_6_41
*1459 FILLER_0_6_53
*1460 FILLER_0_6_65
*1461 FILLER_0_6_77
*1462 FILLER_0_6_83
*1463 FILLER_0_6_85
*1464 FILLER_0_6_97
*1465 FILLER_0_7_105
*1466 FILLER_0_7_111
*1467 FILLER_0_7_113
*1468 FILLER_0_7_125
*1469 FILLER_0_7_137
*1470 FILLER_0_7_149
*1471 FILLER_0_7_15
*1472 FILLER_0_7_161
*1473 FILLER_0_7_167
*1474 FILLER_0_7_169
*1475 FILLER_0_7_181
*1476 FILLER_0_7_193
*1477 FILLER_0_7_205
*1478 FILLER_0_7_217
*1479 FILLER_0_7_223
*1480 FILLER_0_7_225
*1481 FILLER_0_7_237
*1482 FILLER_0_7_249
*1483 FILLER_0_7_261
*1484 FILLER_0_7_27
*1485 FILLER_0_7_273
*1486 FILLER_0_7_279
*1487 FILLER_0_7_281
*1488 FILLER_0_7_293
*1489 FILLER_0_7_3
*1490 FILLER_0_7_305
*1491 FILLER_0_7_317
*1492 FILLER_0_7_329
*1493 FILLER_0_7_39
*1494 FILLER_0_7_51
*1495 FILLER_0_7_55
*1496 FILLER_0_7_57
*1497 FILLER_0_7_69
*1498 FILLER_0_7_81
*1499 FILLER_0_7_93
*1500 FILLER_0_8_109
*1501 FILLER_0_8_121
*1502 FILLER_0_8_133
*1503 FILLER_0_8_139
*1504 FILLER_0_8_141
*1505 FILLER_0_8_15
*1506 FILLER_0_8_153
*1507 FILLER_0_8_165
*1508 FILLER_0_8_177
*1509 FILLER_0_8_189
*1510 FILLER_0_8_195
*1511 FILLER_0_8_197
*1512 FILLER_0_8_209
*1513 FILLER_0_8_221
*1514 FILLER_0_8_233
*1515 FILLER_0_8_245
*1516 FILLER_0_8_251
*1517 FILLER_0_8_253
*1518 FILLER_0_8_265
*1519 FILLER_0_8_27
*1520 FILLER_0_8_277