*SPEF "ieee 1481-1999"
*DESIGN "tt_um_lipsi_schoeberl"
*DATE "21:04:13 Monday April 15, 2024"
*VENDOR "The OpenROAD Project"
*PROGRAM "OpenROAD"
*VERSION "0889970d1790a2617e69f253221b8bd7626e51dc"
*DESIGN_FLOW "NAME_SCOPE LOCAL" "PIN_CAP NONE"
*DIVIDER /
*DELIMITER :
*BUS_DELIMITER []
*T_UNIT 1 NS
*C_UNIT 1 PF
*R_UNIT 1 OHM
*L_UNIT 1 HENRY

*NAME_MAP
*3 clk
*4 ena
*5 rst_n
*6 ui_in[0]
*7 ui_in[1]
*8 ui_in[2]
*9 ui_in[3]
*10 ui_in[4]
*11 ui_in[5]
*12 ui_in[6]
*13 ui_in[7]
*14 uio_in[0]
*15 uio_in[1]
*16 uio_in[2]
*17 uio_in[3]
*18 uio_in[4]
*19 uio_in[5]
*20 uio_in[6]
*21 uio_in[7]
*22 net19
*23 net20
*24 net21
*25 net22
*26 net23
*27 net24
*28 net25
*29 net26
*30 net27
*31 net28
*32 net29
*33 net30
*34 net31
*35 net32
*36 net33
*37 net34
*38 uo_out[0]
*39 uo_out[1]
*40 uo_out[2]
*41 uo_out[3]
*42 uo_out[4]
*43 uo_out[5]
*44 uo_out[6]
*45 uo_out[7]
*46 ChiselTop\.cntReg\[0\]
*47 ChiselTop\.cntReg\[10\]
*48 ChiselTop\.cntReg\[11\]
*49 ChiselTop\.cntReg\[12\]
*50 ChiselTop\.cntReg\[13\]
*51 ChiselTop\.cntReg\[14\]
*52 ChiselTop\.cntReg\[15\]
*53 ChiselTop\.cntReg\[16\]
*54 ChiselTop\.cntReg\[17\]
*55 ChiselTop\.cntReg\[18\]
*56 ChiselTop\.cntReg\[19\]
*57 ChiselTop\.cntReg\[1\]
*58 ChiselTop\.cntReg\[20\]
*59 ChiselTop\.cntReg\[21\]
*60 ChiselTop\.cntReg\[22\]
*61 ChiselTop\.cntReg\[23\]
*62 ChiselTop\.cntReg\[24\]
*63 ChiselTop\.cntReg\[25\]
*64 ChiselTop\.cntReg\[26\]
*65 ChiselTop\.cntReg\[27\]
*66 ChiselTop\.cntReg\[28\]
*67 ChiselTop\.cntReg\[29\]
*68 ChiselTop\.cntReg\[2\]
*69 ChiselTop\.cntReg\[30\]
*70 ChiselTop\.cntReg\[31\]
*71 ChiselTop\.cntReg\[3\]
*72 ChiselTop\.cntReg\[4\]
*73 ChiselTop\.cntReg\[5\]
*74 ChiselTop\.cntReg\[6\]
*75 ChiselTop\.cntReg\[7\]
*76 ChiselTop\.cntReg\[8\]
*77 ChiselTop\.cntReg\[9\]
*78 ChiselTop\.dec\.counter\[0\]
*79 ChiselTop\.dec\.counter\[1\]
*80 ChiselTop\.dec\.counter\[2\]
*81 ChiselTop\.dec\.counter\[3\]
*82 ChiselTop\.led
*83 ChiselTop\.ledReg
*84 ChiselTop\.lipsi\._GEN_29\[8\]
*85 ChiselTop\.lipsi\.accuReg\[0\]
*86 ChiselTop\.lipsi\.accuReg\[1\]
*87 ChiselTop\.lipsi\.accuReg\[2\]
*88 ChiselTop\.lipsi\.accuReg\[3\]
*89 ChiselTop\.lipsi\.accuReg\[4\]
*90 ChiselTop\.lipsi\.accuReg\[5\]
*91 ChiselTop\.lipsi\.accuReg\[6\]
*92 ChiselTop\.lipsi\.accuReg\[7\]
*93 ChiselTop\.lipsi\.enaAccuReg
*94 ChiselTop\.lipsi\.enaIoReg
*95 ChiselTop\.lipsi\.enaPcReg
*96 ChiselTop\.lipsi\.funcReg\[0\]
*97 ChiselTop\.lipsi\.funcReg\[1\]
*98 ChiselTop\.lipsi\.funcReg\[2\]
*99 ChiselTop\.lipsi\.mem\.mem\[0\]\[0\]
*100 ChiselTop\.lipsi\.mem\.mem\[0\]\[1\]
*101 ChiselTop\.lipsi\.mem\.mem\[0\]\[2\]
*102 ChiselTop\.lipsi\.mem\.mem\[0\]\[3\]
*103 ChiselTop\.lipsi\.mem\.mem\[0\]\[4\]
*104 ChiselTop\.lipsi\.mem\.mem\[0\]\[5\]
*105 ChiselTop\.lipsi\.mem\.mem\[0\]\[6\]
*106 ChiselTop\.lipsi\.mem\.mem\[0\]\[7\]
*107 ChiselTop\.lipsi\.mem\.mem\[1\]\[0\]
*108 ChiselTop\.lipsi\.mem\.mem\[1\]\[1\]
*109 ChiselTop\.lipsi\.mem\.mem\[1\]\[2\]
*110 ChiselTop\.lipsi\.mem\.mem\[1\]\[3\]
*111 ChiselTop\.lipsi\.mem\.mem\[1\]\[4\]
*112 ChiselTop\.lipsi\.mem\.mem\[1\]\[5\]
*113 ChiselTop\.lipsi\.mem\.mem\[1\]\[6\]
*114 ChiselTop\.lipsi\.mem\.mem\[1\]\[7\]
*115 ChiselTop\.lipsi\.mem\.mem\[2\]\[0\]
*116 ChiselTop\.lipsi\.mem\.mem\[2\]\[1\]
*117 ChiselTop\.lipsi\.mem\.mem\[2\]\[2\]
*118 ChiselTop\.lipsi\.mem\.mem\[2\]\[3\]
*119 ChiselTop\.lipsi\.mem\.mem\[2\]\[4\]
*120 ChiselTop\.lipsi\.mem\.mem\[2\]\[5\]
*121 ChiselTop\.lipsi\.mem\.mem\[2\]\[6\]
*122 ChiselTop\.lipsi\.mem\.mem\[2\]\[7\]
*123 ChiselTop\.lipsi\.mem\.mem\[3\]\[0\]
*124 ChiselTop\.lipsi\.mem\.mem\[3\]\[1\]
*125 ChiselTop\.lipsi\.mem\.mem\[3\]\[2\]
*126 ChiselTop\.lipsi\.mem\.mem\[3\]\[3\]
*127 ChiselTop\.lipsi\.mem\.mem\[3\]\[4\]
*128 ChiselTop\.lipsi\.mem\.mem\[3\]\[5\]
*129 ChiselTop\.lipsi\.mem\.mem\[3\]\[6\]
*130 ChiselTop\.lipsi\.mem\.mem\[3\]\[7\]
*131 ChiselTop\.lipsi\.mem\.mem_data_addr\[0\]
*132 ChiselTop\.lipsi\.mem\.mem_data_addr\[1\]
*133 ChiselTop\.lipsi\.mem\.rdAddrReg\[2\]
*134 ChiselTop\.lipsi\.mem\.rdAddrReg\[3\]
*135 ChiselTop\.lipsi\.mem\.rdAddrReg\[4\]
*136 ChiselTop\.lipsi\.mem\.rdAddrReg\[5\]
*137 ChiselTop\.lipsi\.mem\.rdAddrReg\[8\]
*138 ChiselTop\.lipsi\.pcReg\[0\]
*139 ChiselTop\.lipsi\.pcReg\[1\]
*140 ChiselTop\.lipsi\.pcReg\[2\]
*141 ChiselTop\.lipsi\.pcReg\[3\]
*142 ChiselTop\.lipsi\.pcReg\[4\]
*143 ChiselTop\.lipsi\.pcReg\[5\]
*144 ChiselTop\.lipsi\.stateReg\[0\]
*145 ChiselTop\.lipsi\.stateReg\[1\]
*146 ChiselTop\.lipsi\.stateReg\[2\]
*147 ChiselTop\.lipsi\.stateReg\[3\]
*148 _0000_
*149 _0001_
*150 _0002_
*151 _0003_
*152 _0004_
*153 _0005_
*154 _0006_
*155 _0007_
*156 _0008_
*157 _0009_
*158 _0010_
*159 _0011_
*160 _0012_
*161 _0013_
*162 _0014_
*163 _0015_
*164 _0016_
*165 _0017_
*166 _0018_
*167 _0019_
*168 _0020_
*169 _0021_
*170 _0022_
*171 _0023_
*172 _0024_
*173 _0025_
*174 _0026_
*175 _0027_
*176 _0028_
*177 _0029_
*178 _0030_
*179 _0031_
*180 _0032_
*181 _0033_
*182 _0034_
*183 _0035_
*184 _0036_
*185 _0037_
*186 _0038_
*187 _0039_
*188 _0040_
*189 _0041_
*190 _0042_
*191 _0043_
*192 _0044_
*193 _0045_
*194 _0046_
*195 _0047_
*196 _0048_
*197 _0049_
*198 _0050_
*199 _0051_
*200 _0052_
*201 _0053_
*202 _0054_
*203 _0055_
*204 _0056_
*205 _0057_
*206 _0058_
*207 _0059_
*208 _0060_
*209 _0061_
*210 _0062_
*211 _0063_
*212 _0064_
*213 _0065_
*214 _0066_
*215 _0067_
*216 _0068_
*217 _0069_
*218 _0070_
*219 _0071_
*220 _0072_
*221 _0073_
*222 _0074_
*223 _0075_
*224 _0076_
*225 _0077_
*226 _0078_
*227 _0079_
*228 _0080_
*229 _0081_
*230 _0082_
*231 _0083_
*232 _0084_
*233 _0085_
*234 _0086_
*235 _0087_
*236 _0088_
*237 _0089_
*238 _0090_
*239 _0091_
*240 _0092_
*241 _0093_
*242 _0094_
*243 _0095_
*244 _0096_
*245 _0097_
*246 _0098_
*247 _0099_
*248 _0100_
*249 _0101_
*250 _0102_
*251 _0103_
*252 _0104_
*253 _0105_
*254 _0106_
*255 _0107_
*256 _0108_
*257 _0109_
*258 _0110_
*259 _0111_
*260 _0112_
*261 _0113_
*262 _0114_
*263 _0115_
*264 _0116_
*265 _0117_
*266 _0118_
*267 _0119_
*268 _0120_
*269 _0121_
*270 _0122_
*271 _0123_
*272 _0124_
*273 _0125_
*274 _0126_
*275 _0127_
*276 _0128_
*277 _0129_
*278 _0130_
*279 _0131_
*280 _0132_
*281 _0133_
*282 _0134_
*283 _0135_
*284 _0136_
*285 _0137_
*286 _0138_
*287 _0139_
*288 _0140_
*289 _0141_
*290 _0142_
*291 _0143_
*292 _0144_
*293 _0145_
*294 _0146_
*295 _0147_
*296 _0148_
*297 _0149_
*298 _0150_
*299 _0151_
*300 _0152_
*301 _0153_
*302 _0154_
*303 _0155_
*304 _0156_
*305 _0157_
*306 _0158_
*307 _0159_
*308 _0160_
*309 _0161_
*310 _0162_
*311 _0163_
*312 _0164_
*313 _0165_
*314 _0166_
*315 _0167_
*316 _0168_
*317 _0169_
*318 _0170_
*319 _0171_
*320 _0172_
*321 _0173_
*322 _0174_
*323 _0175_
*324 _0176_
*325 _0177_
*326 _0178_
*327 _0179_
*328 _0180_
*329 _0181_
*330 _0182_
*331 _0183_
*332 _0184_
*333 _0185_
*334 _0186_
*335 _0187_
*336 _0188_
*337 _0189_
*338 _0190_
*339 _0191_
*340 _0192_
*341 _0193_
*342 _0194_
*343 _0195_
*344 _0196_
*345 _0197_
*346 _0198_
*347 _0199_
*348 _0200_
*349 _0201_
*350 _0202_
*351 _0203_
*352 _0204_
*353 _0205_
*354 _0206_
*355 _0207_
*356 _0208_
*357 _0209_
*358 _0210_
*359 _0211_
*360 _0212_
*361 _0213_
*362 _0214_
*363 _0215_
*364 _0216_
*365 _0217_
*366 _0218_
*367 _0219_
*368 _0220_
*369 _0221_
*370 _0222_
*371 _0223_
*372 _0224_
*373 _0225_
*374 _0226_
*375 _0227_
*376 _0228_
*377 _0229_
*378 _0230_
*379 _0231_
*380 _0232_
*381 _0233_
*382 _0234_
*383 _0235_
*384 _0236_
*385 _0237_
*386 _0238_
*387 _0239_
*388 _0240_
*389 _0241_
*390 _0242_
*391 _0243_
*392 _0244_
*393 _0245_
*394 _0246_
*395 _0247_
*396 _0248_
*397 _0249_
*398 _0250_
*399 _0251_
*400 _0252_
*401 _0253_
*402 _0254_
*403 _0255_
*404 _0256_
*405 _0257_
*406 _0258_
*407 _0259_
*408 _0260_
*409 _0261_
*410 _0262_
*411 _0263_
*412 _0264_
*413 _0265_
*414 _0266_
*415 _0267_
*416 _0268_
*417 _0269_
*418 _0270_
*419 _0271_
*420 _0272_
*421 _0273_
*422 _0274_
*423 _0275_
*424 _0276_
*425 _0277_
*426 _0278_
*427 _0279_
*428 _0280_
*429 _0281_
*430 _0282_
*431 _0283_
*432 _0284_
*433 _0285_
*434 _0286_
*435 _0287_
*436 _0288_
*437 _0289_
*438 _0290_
*439 _0291_
*440 _0292_
*441 _0293_
*442 _0294_
*443 _0295_
*444 _0296_
*445 _0297_
*446 _0298_
*447 _0299_
*448 _0300_
*449 _0301_
*450 _0302_
*451 _0303_
*452 _0304_
*453 _0305_
*454 _0306_
*455 _0307_
*456 _0308_
*457 _0309_
*458 _0310_
*459 _0311_
*460 _0312_
*461 _0313_
*462 _0314_
*463 _0315_
*464 _0316_
*465 _0317_
*466 _0318_
*467 _0319_
*468 _0320_
*469 _0321_
*470 _0322_
*471 _0323_
*472 _0324_
*473 _0325_
*474 _0326_
*475 _0327_
*476 _0328_
*477 _0329_
*478 _0330_
*479 _0331_
*480 _0332_
*481 _0333_
*482 _0334_
*483 _0335_
*484 _0336_
*485 _0337_
*486 _0338_
*487 _0339_
*488 _0340_
*489 _0341_
*490 _0342_
*491 _0343_
*492 _0344_
*493 _0345_
*494 _0346_
*495 _0347_
*496 _0348_
*497 _0349_
*498 _0350_
*499 _0351_
*500 _0352_
*501 _0353_
*502 _0354_
*503 _0355_
*504 _0356_
*505 _0357_
*506 _0358_
*507 _0359_
*508 _0360_
*509 _0361_
*510 _0362_
*511 _0363_
*512 _0364_
*513 _0365_
*514 _0366_
*515 _0367_
*516 _0368_
*517 _0369_
*518 _0370_
*519 _0371_
*520 _0372_
*521 _0373_
*522 _0374_
*523 _0375_
*524 _0376_
*525 _0377_
*526 _0378_
*527 _0379_
*528 _0380_
*529 _0381_
*530 _0382_
*531 _0383_
*532 _0384_
*533 _0385_
*534 _0386_
*535 _0387_
*536 _0388_
*537 _0389_
*538 _0390_
*539 _0391_
*540 _0392_
*541 _0393_
*542 _0394_
*543 _0395_
*544 _0396_
*545 _0397_
*546 _0398_
*547 _0399_
*548 _0400_
*549 _0401_
*550 _0402_
*551 _0403_
*552 _0404_
*553 _0405_
*554 _0406_
*555 _0407_
*556 _0408_
*557 _0409_
*558 _0410_
*559 _0411_
*560 _0412_
*561 _0413_
*562 _0414_
*563 _0415_
*564 _0416_
*565 _0417_
*566 _0418_
*567 _0419_
*568 _0420_
*569 _0421_
*570 _0422_
*571 _0423_
*572 _0424_
*573 _0425_
*574 _0426_
*575 _0427_
*576 _0428_
*577 _0429_
*578 _0430_
*579 _0431_
*580 _0432_
*581 _0433_
*582 _0434_
*583 _0435_
*584 _0436_
*585 _0437_
*586 _0438_
*587 _0439_
*588 _0440_
*589 _0441_
*590 _0442_
*591 _0443_
*592 _0444_
*593 _0445_
*594 _0446_
*595 _0447_
*596 _0448_
*597 _0449_
*598 _0450_
*599 _0451_
*600 _0452_
*601 _0453_
*602 _0454_
*603 _0455_
*604 _0456_
*605 _0457_
*606 _0458_
*607 _0459_
*608 _0460_
*609 _0461_
*610 _0462_
*611 _0463_
*612 _0464_
*613 _0465_
*614 _0466_
*615 _0467_
*616 _0468_
*617 _0469_
*618 _0470_
*619 _0471_
*620 _0472_
*621 _0473_
*622 _0474_
*623 _0475_
*624 _0476_
*625 _0477_
*626 _0478_
*627 _0479_
*628 _0480_
*629 _0481_
*630 _0482_
*631 _0483_
*632 _0484_
*633 _0485_
*634 _0486_
*635 _0487_
*636 _0488_
*637 _0489_
*638 _0490_
*639 _0491_
*640 _0492_
*641 _0493_
*642 _0494_
*643 _0495_
*644 _0496_
*645 _0497_
*646 _0498_
*647 _0499_
*648 _0500_
*649 _0501_
*650 _0502_
*651 _0503_
*652 _0504_
*653 _0505_
*654 _0506_
*655 _0507_
*656 _0508_
*657 _0509_
*658 _0510_
*659 _0511_
*660 _0512_
*661 _0513_
*662 _0514_
*663 _0515_
*664 _0516_
*665 _0517_
*666 _0518_
*667 _0519_
*668 _0520_
*669 _0521_
*670 _0522_
*671 _0523_
*672 _0524_
*673 _0525_
*674 _0526_
*675 _0527_
*676 _0528_
*677 _0529_
*678 _0530_
*679 _0531_
*680 _0532_
*681 _0533_
*682 _0534_
*683 _0535_
*684 _0536_
*685 _0537_
*686 _0538_
*687 _0539_
*688 _0540_
*689 _0541_
*690 _0542_
*691 _0543_
*692 _0544_
*693 _0545_
*694 _0546_
*695 _0547_
*696 _0548_
*697 _0549_
*698 _0550_
*699 _0551_
*700 _0552_
*701 _0553_
*702 _0554_
*703 _0555_
*704 _0556_
*705 _0557_
*706 _0558_
*707 _0559_
*708 _0560_
*709 _0561_
*710 _0562_
*711 _0563_
*712 _0564_
*713 _0565_
*714 _0566_
*715 _0567_
*716 _0568_
*717 _0569_
*718 _0570_
*719 _0571_
*720 _0572_
*721 _0573_
*722 _0574_
*723 _0575_
*724 _0576_
*725 _0577_
*726 _0578_
*727 _0579_
*728 _0580_
*729 _0581_
*730 _0582_
*731 _0583_
*732 _0584_
*733 clknet_0_clk
*734 clknet_3_0__leaf_clk
*735 clknet_3_1__leaf_clk
*736 clknet_3_2__leaf_clk
*737 clknet_3_3__leaf_clk
*738 clknet_3_4__leaf_clk
*739 clknet_3_5__leaf_clk
*740 clknet_3_6__leaf_clk
*741 clknet_3_7__leaf_clk
*742 net1
*743 net10
*744 net11
*745 net12
*746 net13
*747 net14
*748 net15
*749 net16
*750 net17
*751 net18
*752 net2
*753 net3
*754 net35
*755 net36
*756 net37
*757 net38
*758 net39
*759 net4
*760 net40
*761 net41
*762 net42
*763 net43
*764 net44
*765 net45
*766 net46
*767 net47
*768 net48
*769 net49
*770 net5
*771 net50
*772 net51
*773 net52
*774 net53
*775 net54
*776 net55
*777 net56
*778 net57
*779 net58
*780 net59
*781 net6
*782 net60
*783 net61
*784 net62
*785 net63
*786 net64
*787 net65
*788 net66
*789 net67
*790 net68
*791 net69
*792 net7
*793 net70
*794 net71
*795 net72
*796 net73
*797 net74
*798 net75
*799 net76
*800 net77
*801 net78
*802 net79
*803 net8
*804 net80
*805 net81
*806 net82
*807 net83
*808 net84
*809 net85
*810 net86
*811 net87
*812 net88
*813 net89
*814 net9
*815 net90
*816 FILLER_0_0_109
*817 FILLER_0_0_113
*818 FILLER_0_0_125
*819 FILLER_0_0_137
*820 FILLER_0_0_141
*821 FILLER_0_0_15
*822 FILLER_0_0_153
*823 FILLER_0_0_165
*824 FILLER_0_0_169
*825 FILLER_0_0_181
*826 FILLER_0_0_193
*827 FILLER_0_0_197
*828 FILLER_0_0_209
*829 FILLER_0_0_221
*830 FILLER_0_0_225
*831 FILLER_0_0_237
*832 FILLER_0_0_249
*833 FILLER_0_0_253
*834 FILLER_0_0_265
*835 FILLER_0_0_27
*836 FILLER_0_0_277
*837 FILLER_0_0_281
*838 FILLER_0_0_29
*839 FILLER_0_0_293
*840 FILLER_0_0_3
*841 FILLER_0_0_305
*842 FILLER_0_0_309
*843 FILLER_0_0_321
*844 FILLER_0_0_333
*845 FILLER_0_0_41
*846 FILLER_0_0_53
*847 FILLER_0_0_57
*848 FILLER_0_0_69
*849 FILLER_0_0_81
*850 FILLER_0_0_85
*851 FILLER_0_0_97
*852 FILLER_0_10_11
*853 FILLER_0_10_128
*854 FILLER_0_10_141
*855 FILLER_0_10_153
*856 FILLER_0_10_16
*857 FILLER_0_10_179
*858 FILLER_0_10_197
*859 FILLER_0_10_202
*860 FILLER_0_10_214
*861 FILLER_0_10_226
*862 FILLER_0_10_235
*863 FILLER_0_10_247
*864 FILLER_0_10_251
*865 FILLER_0_10_253
*866 FILLER_0_10_265
*867 FILLER_0_10_296
*868 FILLER_0_10_3
*869 FILLER_0_10_325
*870 FILLER_0_10_333
*871 FILLER_0_10_39
*872 FILLER_0_10_51
*873 FILLER_0_10_59
*874 FILLER_0_10_97
*875 FILLER_0_11_104
*876 FILLER_0_11_109
*877 FILLER_0_11_116
*878 FILLER_0_11_128
*879 FILLER_0_11_140
*880 FILLER_0_11_15
*881 FILLER_0_11_152
*882 FILLER_0_11_164
*883 FILLER_0_11_169
*884 FILLER_0_11_175
*885 FILLER_0_11_207
*886 FILLER_0_11_219
*887 FILLER_0_11_223
*888 FILLER_0_11_256
*889 FILLER_0_11_268
*890 FILLER_0_11_281
*891 FILLER_0_11_293
*892 FILLER_0_11_3
*893 FILLER_0_11_31
*894 FILLER_0_11_334
*895 FILLER_0_11_55
*896 FILLER_0_11_57
*897 FILLER_0_11_69
*898 FILLER_0_11_75
*899 FILLER_0_11_79
*900 FILLER_0_11_90
*901 FILLER_0_11_96
*902 FILLER_0_12_106
*903 FILLER_0_12_123
*904 FILLER_0_12_135
*905 FILLER_0_12_139
*906 FILLER_0_12_141
*907 FILLER_0_12_153
*908 FILLER_0_12_207
*909 FILLER_0_12_217
*910 FILLER_0_12_251
*911 FILLER_0_12_253
*912 FILLER_0_12_270
*913 FILLER_0_12_282
*914 FILLER_0_12_290
*915 FILLER_0_12_3
*916 FILLER_0_12_324
*917 FILLER_0_12_41
*918 FILLER_0_12_61
*919 FILLER_0_12_73
*920 FILLER_0_12_77
*921 FILLER_0_12_81
*922 FILLER_0_13_111
*923 FILLER_0_13_119
*924 FILLER_0_13_131
*925 FILLER_0_13_166
*926 FILLER_0_13_169
*927 FILLER_0_13_181
*928 FILLER_0_13_203
*929 FILLER_0_13_211
*930 FILLER_0_13_248
*931 FILLER_0_13_271
*932 FILLER_0_13_279
*933 FILLER_0_13_281
*934 FILLER_0_13_3
*935 FILLER_0_13_33
*936 FILLER_0_13_331
*937 FILLER_0_13_41
*938 FILLER_0_13_61
*939 FILLER_0_13_96
*940 FILLER_0_14_112
*941 FILLER_0_14_147
*942 FILLER_0_14_172
*943 FILLER_0_14_184
*944 FILLER_0_14_194
*945 FILLER_0_14_197
*946 FILLER_0_14_205
*947 FILLER_0_14_21
*948 FILLER_0_14_235
*949 FILLER_0_14_259
*950 FILLER_0_14_27
*951 FILLER_0_14_275
*952 FILLER_0_14_287
*953 FILLER_0_14_3
*954 FILLER_0_14_306
*955 FILLER_0_14_309
*956 FILLER_0_14_331
*957 FILLER_0_14_36
*958 FILLER_0_14_48
*959 FILLER_0_14_60
*960 FILLER_0_14_68
*961 FILLER_0_14_79
*962 FILLER_0_15_106
*963 FILLER_0_15_113
*964 FILLER_0_15_136
*965 FILLER_0_15_15
*966 FILLER_0_15_151
*967 FILLER_0_15_174
*968 FILLER_0_15_182
*969 FILLER_0_15_190
*970 FILLER_0_15_202
*971 FILLER_0_15_210
*972 FILLER_0_15_221
*973 FILLER_0_15_225
*974 FILLER_0_15_234
*975 FILLER_0_15_238
*976 FILLER_0_15_277
*977 FILLER_0_15_286
*978 FILLER_0_15_290
*979 FILLER_0_15_3
*980 FILLER_0_15_31
*981 FILLER_0_15_316
*982 FILLER_0_15_328
*983 FILLER_0_15_334
*984 FILLER_0_15_43
*985 FILLER_0_15_55
*986 FILLER_0_15_57
*987 FILLER_0_15_85
*988 FILLER_0_16_11
*989 FILLER_0_16_110
*990 FILLER_0_16_122
*991 FILLER_0_16_126
*992 FILLER_0_16_146
*993 FILLER_0_16_163
*994 FILLER_0_16_175
*995 FILLER_0_16_204
*996 FILLER_0_16_212
*997 FILLER_0_16_227
*998 FILLER_0_16_239
*999 FILLER_0_16_259
*1000 FILLER_0_16_291
*1001 FILLER_0_16_3
*1002 FILLER_0_16_328
*1003 FILLER_0_16_334
*1004 FILLER_0_16_44
*1005 FILLER_0_16_50
*1006 FILLER_0_16_58
*1007 FILLER_0_16_98
*1008 FILLER_0_17_111
*1009 FILLER_0_17_144
*1010 FILLER_0_17_152
*1011 FILLER_0_17_157
*1012 FILLER_0_17_165
*1013 FILLER_0_17_169
*1014 FILLER_0_17_211
*1015 FILLER_0_17_245
*1016 FILLER_0_17_253
*1017 FILLER_0_17_259
*1018 FILLER_0_17_266
*1019 FILLER_0_17_275
*1020 FILLER_0_17_279
*1021 FILLER_0_17_51
*1022 FILLER_0_17_55
*1023 FILLER_0_17_57
*1024 FILLER_0_17_63
*1025 FILLER_0_17_99
*1026 FILLER_0_18_101
*1027 FILLER_0_18_11
*1028 FILLER_0_18_118
*1029 FILLER_0_18_131
*1030 FILLER_0_18_139
*1031 FILLER_0_18_141
*1032 FILLER_0_18_164
*1033 FILLER_0_18_195
*1034 FILLER_0_18_197
*1035 FILLER_0_18_204
*1036 FILLER_0_18_21
*1037 FILLER_0_18_216
*1038 FILLER_0_18_220
*1039 FILLER_0_18_226
*1040 FILLER_0_18_238
*1041 FILLER_0_18_250
*1042 FILLER_0_18_253
*1043 FILLER_0_18_265
*1044 FILLER_0_18_277
*1045 FILLER_0_18_289
*1046 FILLER_0_18_29
*1047 FILLER_0_18_297
*1048 FILLER_0_18_3
*1049 FILLER_0_18_318
*1050 FILLER_0_18_328
*1051 FILLER_0_18_334
*1052 FILLER_0_18_42
*1053 FILLER_0_18_50
*1054 FILLER_0_18_57
*1055 FILLER_0_18_85
*1056 FILLER_0_18_97
*1057 FILLER_0_19_103
*1058 FILLER_0_19_113
*1059 FILLER_0_19_117
*1060 FILLER_0_19_134
*1061 FILLER_0_19_146
*1062 FILLER_0_19_15
*1063 FILLER_0_19_158
*1064 FILLER_0_19_166
*1065 FILLER_0_19_199
*1066 FILLER_0_19_211
*1067 FILLER_0_19_223
*1068 FILLER_0_19_225
*1069 FILLER_0_19_242
*1070 FILLER_0_19_254
*1071 FILLER_0_19_28
*1072 FILLER_0_19_290
*1073 FILLER_0_19_3
*1074 FILLER_0_19_301
*1075 FILLER_0_19_325
*1076 FILLER_0_19_36
*1077 FILLER_0_19_43
*1078 FILLER_0_19_55
*1079 FILLER_0_19_57
*1080 FILLER_0_19_65
*1081 FILLER_0_19_86
*1082 FILLER_0_19_90
*1083 FILLER_0_19_95
*1084 FILLER_0_1_105
*1085 FILLER_0_1_111
*1086 FILLER_0_1_113
*1087 FILLER_0_1_125
*1088 FILLER_0_1_137
*1089 FILLER_0_1_149
*1090 FILLER_0_1_15
*1091 FILLER_0_1_161
*1092 FILLER_0_1_167
*1093 FILLER_0_1_169
*1094 FILLER_0_1_181
*1095 FILLER_0_1_193
*1096 FILLER_0_1_205
*1097 FILLER_0_1_217
*1098 FILLER_0_1_223
*1099 FILLER_0_1_225
*1100 FILLER_0_1_237
*1101 FILLER_0_1_249
*1102 FILLER_0_1_261
*1103 FILLER_0_1_27
*1104 FILLER_0_1_273
*1105 FILLER_0_1_279
*1106 FILLER_0_1_281
*1107 FILLER_0_1_293
*1108 FILLER_0_1_3
*1109 FILLER_0_1_305
*1110 FILLER_0_1_317
*1111 FILLER_0_1_329
*1112 FILLER_0_1_39
*1113 FILLER_0_1_51
*1114 FILLER_0_1_55
*1115 FILLER_0_1_57
*1116 FILLER_0_1_69
*1117 FILLER_0_1_81
*1118 FILLER_0_1_93
*1119 FILLER_0_20_110
*1120 FILLER_0_20_137
*1121 FILLER_0_20_147
*1122 FILLER_0_20_151
*1123 FILLER_0_20_160
*1124 FILLER_0_20_172
*1125 FILLER_0_20_187
*1126 FILLER_0_20_195
*1127 FILLER_0_20_197
*1128 FILLER_0_20_20
*1129 FILLER_0_20_201
*1130 FILLER_0_20_225
*1131 FILLER_0_20_250
*1132 FILLER_0_20_253
*1133 FILLER_0_20_264
*1134 FILLER_0_20_3
*1135 FILLER_0_20_334
*1136 FILLER_0_20_51
*1137 FILLER_0_20_63
*1138 FILLER_0_20_85
*1139 FILLER_0_20_93
*1140 FILLER_0_20_98
*1141 FILLER_0_21_105
*1142 FILLER_0_21_111
*1143 FILLER_0_21_129
*1144 FILLER_0_21_139
*1145 FILLER_0_21_147
*1146 FILLER_0_21_166
*1147 FILLER_0_21_22
*1148 FILLER_0_21_225
*1149 FILLER_0_21_263
*1150 FILLER_0_21_284
*1151 FILLER_0_21_296
*1152 FILLER_0_21_3
*1153 FILLER_0_21_300
*1154 FILLER_0_21_334
*1155 FILLER_0_21_54
*1156 FILLER_0_21_93
*1157 FILLER_0_22_108
*1158 FILLER_0_22_11
*1159 FILLER_0_22_112
*1160 FILLER_0_22_116
*1161 FILLER_0_22_130
*1162 FILLER_0_22_136
*1163 FILLER_0_22_141
*1164 FILLER_0_22_162
*1165 FILLER_0_22_170
*1166 FILLER_0_22_188
*1167 FILLER_0_22_206
*1168 FILLER_0_22_250
*1169 FILLER_0_22_253
*1170 FILLER_0_22_265
*1171 FILLER_0_22_269
*1172 FILLER_0_22_29
*1173 FILLER_0_22_296
*1174 FILLER_0_22_3
*1175 FILLER_0_22_333
*1176 FILLER_0_22_58
*1177 FILLER_0_23_110
*1178 FILLER_0_23_113
*1179 FILLER_0_23_123
*1180 FILLER_0_23_131
*1181 FILLER_0_23_136
*1182 FILLER_0_23_140
*1183 FILLER_0_23_147
*1184 FILLER_0_23_15
*1185 FILLER_0_23_159
*1186 FILLER_0_23_195
*1187 FILLER_0_23_202
*1188 FILLER_0_23_209
*1189 FILLER_0_23_217
*1190 FILLER_0_23_221
*1191 FILLER_0_23_238
*1192 FILLER_0_23_248
*1193 FILLER_0_23_256
*1194 FILLER_0_23_27
*1195 FILLER_0_23_277
*1196 FILLER_0_23_291
*1197 FILLER_0_23_3
*1198 FILLER_0_23_303
*1199 FILLER_0_23_311
*1200 FILLER_0_23_328
*1201 FILLER_0_23_334
*1202 FILLER_0_23_39
*1203 FILLER_0_23_49
*1204 FILLER_0_23_55
*1205 FILLER_0_23_57
*1206 FILLER_0_23_65
*1207 FILLER_0_23_84
*1208 FILLER_0_23_92
*1209 FILLER_0_24_118
*1210 FILLER_0_24_130
*1211 FILLER_0_24_138
*1212 FILLER_0_24_15
*1213 FILLER_0_24_166
*1214 FILLER_0_24_178
*1215 FILLER_0_24_190
*1216 FILLER_0_24_197
*1217 FILLER_0_24_209
*1218 FILLER_0_24_242
*1219 FILLER_0_24_250
*1220 FILLER_0_24_27
*1221 FILLER_0_24_286
*1222 FILLER_0_24_29
*1223 FILLER_0_24_298
*1224 FILLER_0_24_3
*1225 FILLER_0_24_305
*1226 FILLER_0_24_312
*1227 FILLER_0_24_324
*1228 FILLER_0_24_333
*1229 FILLER_0_24_41
*1230 FILLER_0_24_53
*1231 FILLER_0_24_65
*1232 FILLER_0_24_77
*1233 FILLER_0_24_83
*1234 FILLER_0_24_85
*1235 FILLER_0_25_108
*1236 FILLER_0_25_144
*1237 FILLER_0_25_15
*1238 FILLER_0_25_160
*1239 FILLER_0_25_165
*1240 FILLER_0_25_178
*1241 FILLER_0_25_190
*1242 FILLER_0_25_202
*1243 FILLER_0_25_214
*1244 FILLER_0_25_252
*1245 FILLER_0_25_261
*1246 FILLER_0_25_265
*1247 FILLER_0_25_27
*1248 FILLER_0_25_275
*1249 FILLER_0_25_279
*1250 FILLER_0_25_281
*1251 FILLER_0_25_289
*1252 FILLER_0_25_3
*1253 FILLER_0_25_309
*1254 FILLER_0_25_318
*1255 FILLER_0_25_330
*1256 FILLER_0_25_334
*1257 FILLER_0_25_39
*1258 FILLER_0_25_51
*1259 FILLER_0_25_55
*1260 FILLER_0_25_57
*1261 FILLER_0_25_69
*1262 FILLER_0_25_81
*1263 FILLER_0_26_113
*1264 FILLER_0_26_119
*1265 FILLER_0_26_15
*1266 FILLER_0_26_150
*1267 FILLER_0_26_179
*1268 FILLER_0_26_197
*1269 FILLER_0_26_209
*1270 FILLER_0_26_247
*1271 FILLER_0_26_251
*1272 FILLER_0_26_253
*1273 FILLER_0_26_27
*1274 FILLER_0_26_284
*1275 FILLER_0_26_29
*1276 FILLER_0_26_296
*1277 FILLER_0_26_3
*1278 FILLER_0_26_304
*1279 FILLER_0_26_324
*1280 FILLER_0_26_332
*1281 FILLER_0_26_41
*1282 FILLER_0_26_53
*1283 FILLER_0_26_65
*1284 FILLER_0_26_77
*1285 FILLER_0_26_83
*1286 FILLER_0_26_85
*1287 FILLER_0_27_101
*1288 FILLER_0_27_106
*1289 FILLER_0_27_130
*1290 FILLER_0_27_142
*1291 FILLER_0_27_15
*1292 FILLER_0_27_166
*1293 FILLER_0_27_169
*1294 FILLER_0_27_177
*1295 FILLER_0_27_214
*1296 FILLER_0_27_225
*1297 FILLER_0_27_232
*1298 FILLER_0_27_244
*1299 FILLER_0_27_256
*1300 FILLER_0_27_27
*1301 FILLER_0_27_275
*1302 FILLER_0_27_279
*1303 FILLER_0_27_287
*1304 FILLER_0_27_299
*1305 FILLER_0_27_3
*1306 FILLER_0_27_325
*1307 FILLER_0_27_333
*1308 FILLER_0_27_39
*1309 FILLER_0_27_51
*1310 FILLER_0_27_55
*1311 FILLER_0_27_57
*1312 FILLER_0_27_69
*1313 FILLER_0_27_81
*1314 FILLER_0_27_93
*1315 FILLER_0_28_109
*1316 FILLER_0_28_121
*1317 FILLER_0_28_133
*1318 FILLER_0_28_139
*1319 FILLER_0_28_141
*1320 FILLER_0_28_15
*1321 FILLER_0_28_175
*1322 FILLER_0_28_187
*1323 FILLER_0_28_195
*1324 FILLER_0_28_201
*1325 FILLER_0_28_209
*1326 FILLER_0_28_214
*1327 FILLER_0_28_225
*1328 FILLER_0_28_238
*1329 FILLER_0_28_249
*1330 FILLER_0_28_258
*1331 FILLER_0_28_27
*1332 FILLER_0_28_274
*1333 FILLER_0_28_286
*1334 FILLER_0_28_29
*1335 FILLER_0_28_290
*1336 FILLER_0_28_3
*1337 FILLER_0_28_322
*1338 FILLER_0_28_334
*1339 FILLER_0_28_41
*1340 FILLER_0_28_53
*1341 FILLER_0_28_65
*1342 FILLER_0_28_77
*1343 FILLER_0_28_83
*1344 FILLER_0_28_85
*1345 FILLER_0_28_97
*1346 FILLER_0_29_105
*1347 FILLER_0_29_111
*1348 FILLER_0_29_113
*1349 FILLER_0_29_125
*1350 FILLER_0_29_137
*1351 FILLER_0_29_15
*1352 FILLER_0_29_164
*1353 FILLER_0_29_169
*1354 FILLER_0_29_181
*1355 FILLER_0_29_200
*1356 FILLER_0_29_219
*1357 FILLER_0_29_223
*1358 FILLER_0_29_225
*1359 FILLER_0_29_237
*1360 FILLER_0_29_245
*1361 FILLER_0_29_261
*1362 FILLER_0_29_27
*1363 FILLER_0_29_281
*1364 FILLER_0_29_293
*1365 FILLER_0_29_3
*1366 FILLER_0_29_320
*1367 FILLER_0_29_332
*1368 FILLER_0_29_39
*1369 FILLER_0_29_51
*1370 FILLER_0_29_55
*1371 FILLER_0_29_57
*1372 FILLER_0_29_69
*1373 FILLER_0_29_81
*1374 FILLER_0_29_93
*1375 FILLER_0_2_109
*1376 FILLER_0_2_121
*1377 FILLER_0_2_133
*1378 FILLER_0_2_139
*1379 FILLER_0_2_141
*1380 FILLER_0_2_15
*1381 FILLER_0_2_153
*1382 FILLER_0_2_165
*1383 FILLER_0_2_177
*1384 FILLER_0_2_189
*1385 FILLER_0_2_195
*1386 FILLER_0_2_197
*1387 FILLER_0_2_209
*1388 FILLER_0_2_221
*1389 FILLER_0_2_233
*1390 FILLER_0_2_245
*1391 FILLER_0_2_251
*1392 FILLER_0_2_253
*1393 FILLER_0_2_265
*1394 FILLER_0_2_27
*1395 FILLER_0_2_277
*1396 FILLER_0_2_289
*1397 FILLER_0_2_29
*1398 FILLER_0_2_3
*1399 FILLER_0_2_301
*1400 FILLER_0_2_307
*1401 FILLER_0_2_309
*1402 FILLER_0_2_321
*1403 FILLER_0_2_333
*1404 FILLER_0_2_41
*1405 FILLER_0_2_53
*1406 FILLER_0_2_65
*1407 FILLER_0_2_77
*1408 FILLER_0_2_83
*1409 FILLER_0_2_85
*1410 FILLER_0_2_97
*1411 FILLER_0_30_109
*1412 FILLER_0_30_121
*1413 FILLER_0_30_141
*1414 FILLER_0_30_15
*1415 FILLER_0_30_168
*1416 FILLER_0_30_180
*1417 FILLER_0_30_195
*1418 FILLER_0_30_205
*1419 FILLER_0_30_213
*1420 FILLER_0_30_220
*1421 FILLER_0_30_232
*1422 FILLER_0_30_236
*1423 FILLER_0_30_248
*1424 FILLER_0_30_261
*1425 FILLER_0_30_269
*1426 FILLER_0_30_27
*1427 FILLER_0_30_283
*1428 FILLER_0_30_29
*1429 FILLER_0_30_295
*1430 FILLER_0_30_3
*1431 FILLER_0_30_303
*1432 FILLER_0_30_307
*1433 FILLER_0_30_315
*1434 FILLER_0_30_327
*1435 FILLER_0_30_41
*1436 FILLER_0_30_53
*1437 FILLER_0_30_65
*1438 FILLER_0_30_77
*1439 FILLER_0_30_83
*1440 FILLER_0_30_85
*1441 FILLER_0_30_97
*1442 FILLER_0_31_105
*1443 FILLER_0_31_111
*1444 FILLER_0_31_113
*1445 FILLER_0_31_125
*1446 FILLER_0_31_145
*1447 FILLER_0_31_15
*1448 FILLER_0_31_163
*1449 FILLER_0_31_167
*1450 FILLER_0_31_169
*1451 FILLER_0_31_177
*1452 FILLER_0_31_194
*1453 FILLER_0_31_215
*1454 FILLER_0_31_225
*1455 FILLER_0_31_238
*1456 FILLER_0_31_245
*1457 FILLER_0_31_257
*1458 FILLER_0_31_269
*1459 FILLER_0_31_27
*1460 FILLER_0_31_285
*1461 FILLER_0_31_3
*1462 FILLER_0_31_309
*1463 FILLER_0_31_317
*1464 FILLER_0_31_323
*1465 FILLER_0_31_39
*1466 FILLER_0_31_51
*1467 FILLER_0_31_55
*1468 FILLER_0_31_57
*1469 FILLER_0_31_69
*1470 FILLER_0_31_81
*1471 FILLER_0_31_93
*1472 FILLER_0_32_109
*1473 FILLER_0_32_117
*1474 FILLER_0_32_137
*1475 FILLER_0_32_141
*1476 FILLER_0_32_15
*1477 FILLER_0_32_159
*1478 FILLER_0_32_171
*1479 FILLER_0_32_183
*1480 FILLER_0_32_194
*1481 FILLER_0_32_214
*1482 FILLER_0_32_226
*1483 FILLER_0_32_244
*1484 FILLER_0_32_253
*1485 FILLER_0_32_259
*1486 FILLER_0_32_27
*1487 FILLER_0_32_29
*1488 FILLER_0_32_290
*1489 FILLER_0_32_296
*1490 FILLER_0_32_3
*1491 FILLER_0_32_309
*1492 FILLER_0_32_326
*1493 FILLER_0_32_334
*1494 FILLER_0_32_41
*1495 FILLER_0_32_53
*1496 FILLER_0_32_65
*1497 FILLER_0_32_77
*1498 FILLER_0_32_83
*1499 FILLER_0_32_85
*1500 FILLER_0_32_97
*1501 FILLER_0_33_101
*1502 FILLER_0_33_108
*1503 FILLER_0_33_113
*1504 FILLER_0_33_125
*1505 FILLER_0_33_142
*1506 FILLER_0_33_15
*1507 FILLER_0_33_150
*1508 FILLER_0_33_162
*1509 FILLER_0_33_169
*1510 FILLER_0_33_181
*1511 FILLER_0_33_196
*1512 FILLER_0_33_202
*1513 FILLER_0_33_208
*1514 FILLER_0_33_220
*1515 FILLER_0_33_225
*1516 FILLER_0_33_259
*1517 FILLER_0_33_27
*1518 FILLER_0_33_281
*1519 FILLER_0_33_293
*1520 FILLER_0_33_3
*1521 FILLER_0_33_301
*1522 FILLER_0_33_323
*1523 FILLER_0_33_39
*1524 FILLER_0_33_51
*1525 FILLER_0_33_55
*1526 FILLER_0_33_57
*1527 FILLER_0_33_69
*1528 FILLER_0_33_81
*1529 FILLER_0_33_93
*1530 FILLER_0_34_118
*1531 FILLER_0_34_126
*1532 FILLER_0_34_136
*1533 FILLER_0_34_141
*1534 FILLER_0_34_15
*1535 FILLER_0_34_158
*1536 FILLER_0_34_176
*1537 FILLER_0_34_188
*1538 FILLER_0_34_205
*1539 FILLER_0_34_217
*1540 FILLER_0_34_221
*1541 FILLER_0_34_239
*1542 FILLER_0_34_247
*1543 FILLER_0_34_251
*1544 FILLER_0_34_253
*1545 FILLER_0_34_265
*1546 FILLER_0_34_27
*1547 FILLER_0_34_277
*1548 FILLER_0_34_289
*1549 FILLER_0_34_29
*1550 FILLER_0_34_297
*1551 FILLER_0_34_3
*1552 FILLER_0_34_309
*1553 FILLER_0_34_326
*1554 FILLER_0_34_334
*1555 FILLER_0_34_41
*1556 FILLER_0_34_53
*1557 FILLER_0_34_65
*1558 FILLER_0_34_77
*1559 FILLER_0_34_83
*1560 FILLER_0_34_85
*1561 FILLER_0_35_101
*1562 FILLER_0_35_108
*1563 FILLER_0_35_113
*1564 FILLER_0_35_125
*1565 FILLER_0_35_15
*1566 FILLER_0_35_177
*1567 FILLER_0_35_213
*1568 FILLER_0_35_221
*1569 FILLER_0_35_225
*1570 FILLER_0_35_242
*1571 FILLER_0_35_254
*1572 FILLER_0_35_262
*1573 FILLER_0_35_27
*1574 FILLER_0_35_287
*1575 FILLER_0_35_299
*1576 FILLER_0_35_3
*1577 FILLER_0_35_311
*1578 FILLER_0_35_323
*1579 FILLER_0_35_39
*1580 FILLER_0_35_51
*1581 FILLER_0_35_55
*1582 FILLER_0_35_57
*1583 FILLER_0_35_69
*1584 FILLER_0_35_81
*1585 FILLER_0_35_93
*1586 FILLER_0_36_109
*1587 FILLER_0_36_121
*1588 FILLER_0_36_125
*1589 FILLER_0_36_131
*1590 FILLER_0_36_141
*1591 FILLER_0_36_15
*1592 FILLER_0_36_187
*1593 FILLER_0_36_195
*1594 FILLER_0_36_214
*1595 FILLER_0_36_228
*1596 FILLER_0_36_232
*1597 FILLER_0_36_248
*1598 FILLER_0_36_253
*1599 FILLER_0_36_261
*1600 FILLER_0_36_27
*1601 FILLER_0_36_29
*1602 FILLER_0_36_290
*1603 FILLER_0_36_294
*1604 FILLER_0_36_3
*1605 FILLER_0_36_300
*1606 FILLER_0_36_309
*1607 FILLER_0_36_328
*1608 FILLER_0_36_334
*1609 FILLER_0_36_41
*1610 FILLER_0_36_53
*1611 FILLER_0_36_65
*1612 FILLER_0_36_77
*1613 FILLER_0_36_83
*1614 FILLER_0_36_85
*1615 FILLER_0_36_97
*1616 FILLER_0_37_105
*1617 FILLER_0_37_111
*1618 FILLER_0_37_116
*1619 FILLER_0_37_128
*1620 FILLER_0_37_132
*1621 FILLER_0_37_137
*1622 FILLER_0_37_15
*1623 FILLER_0_37_183
*1624 FILLER_0_37_191
*1625 FILLER_0_37_208
*1626 FILLER_0_37_220
*1627 FILLER_0_37_225
*1628 FILLER_0_37_255
*1629 FILLER_0_37_259
*1630 FILLER_0_37_27
*1631 FILLER_0_37_284
*1632 FILLER_0_37_3
*1633 FILLER_0_37_314
*1634 FILLER_0_37_332
*1635 FILLER_0_37_39
*1636 FILLER_0_37_51
*1637 FILLER_0_37_55