*SPEF "ieee 1481-1999"
*DESIGN "tt_um_motor"
*DATE "05:45:08 Saturday April 13, 2024"
*VENDOR "The OpenROAD Project"
*PROGRAM "OpenROAD"
*VERSION "0889970d1790a2617e69f253221b8bd7626e51dc"
*DESIGN_FLOW "NAME_SCOPE LOCAL" "PIN_CAP NONE"
*DIVIDER /
*DELIMITER :
*BUS_DELIMITER []
*T_UNIT 1 NS
*C_UNIT 1 PF
*R_UNIT 1 OHM
*L_UNIT 1 HENRY

*NAME_MAP
*3 clk
*4 ena
*5 rst_n
*6 ui_in[0]
*7 ui_in[1]
*8 ui_in[2]
*9 ui_in[3]
*10 ui_in[4]
*11 ui_in[5]
*12 ui_in[6]
*13 ui_in[7]
*14 uio_in[0]
*15 uio_in[1]
*16 uio_in[2]
*17 uio_in[3]
*18 uio_in[4]
*19 uio_in[5]
*20 uio_in[6]
*21 uio_in[7]
*22 net31
*23 net32
*24 net33
*25 net34
*26 net15
*27 net16
*28 net17
*29 net18
*30 uio_out[0]
*31 uio_out[1]
*32 uio_out[2]
*33 uio_out[3]
*34 net19
*35 net20
*36 net21
*37 net22
*38 net23
*39 net24
*40 net25
*41 net26
*42 net27
*43 net28
*44 net29
*45 net30
*46 U1\.I1
*47 U1\.I2
*48 U1\.I3
*49 U1\.I4
*50 U1\.U1\.counter\[0\]
*51 U1\.U1\.counter\[10\]
*52 U1\.U1\.counter\[11\]
*53 U1\.U1\.counter\[12\]
*54 U1\.U1\.counter\[13\]
*55 U1\.U1\.counter\[14\]
*56 U1\.U1\.counter\[15\]
*57 U1\.U1\.counter\[16\]
*58 U1\.U1\.counter\[17\]
*59 U1\.U1\.counter\[18\]
*60 U1\.U1\.counter\[19\]
*61 U1\.U1\.counter\[1\]
*62 U1\.U1\.counter\[20\]
*63 U1\.U1\.counter\[21\]
*64 U1\.U1\.counter\[22\]
*65 U1\.U1\.counter\[23\]
*66 U1\.U1\.counter\[24\]
*67 U1\.U1\.counter\[25\]
*68 U1\.U1\.counter\[2\]
*69 U1\.U1\.counter\[3\]
*70 U1\.U1\.counter\[4\]
*71 U1\.U1\.counter\[5\]
*72 U1\.U1\.counter\[6\]
*73 U1\.U1\.counter\[7\]
*74 U1\.U1\.counter\[8\]
*75 U1\.U1\.counter\[9\]
*76 U1\.U1\.vel
*77 U1\.estado\[0\]
*78 U1\.estado\[1\]
*79 U1\.estado\[2\]
*80 U1\.estado\[3\]
*81 U1\.estado\[4\]
*82 U1\.estado\[5\]
*83 U1\.estado\[6\]
*84 U1\.estado\[7\]
*85 _000_
*86 _001_
*87 _002_
*88 _003_
*89 _004_
*90 _005_
*91 _006_
*92 _007_
*93 _008_
*94 _009_
*95 _010_
*96 _011_
*97 _012_
*98 _013_
*99 _014_
*100 _015_
*101 _016_
*102 _017_
*103 _018_
*104 _019_
*105 _020_
*106 _021_
*107 _022_
*108 _023_
*109 _024_
*110 _025_
*111 _026_
*112 _027_
*113 _028_
*114 _029_
*115 _030_
*116 _031_
*117 _032_
*118 _033_
*119 _034_
*120 _035_
*121 _036_
*122 _037_
*123 _038_
*124 _039_
*125 _040_
*126 _041_
*127 _042_
*128 _043_
*129 _044_
*130 _045_
*131 _046_
*132 _047_
*133 _048_
*134 _049_
*135 _050_
*136 _051_
*137 _052_
*138 _053_
*139 _054_
*140 _055_
*141 _056_
*142 _057_
*143 _058_
*144 _059_
*145 _060_
*146 _061_
*147 _062_
*148 _063_
*149 _064_
*150 _065_
*151 _066_
*152 _067_
*153 _068_
*154 _069_
*155 _070_
*156 _071_
*157 _072_
*158 _073_
*159 _074_
*160 _075_
*161 _076_
*162 _077_
*163 _078_
*164 _079_
*165 _080_
*166 _081_
*167 _082_
*168 _083_
*169 _084_
*170 _085_
*171 _086_
*172 _087_
*173 _088_
*174 _089_
*175 _090_
*176 _091_
*177 _092_
*178 _093_
*179 _094_
*180 _095_
*181 _096_
*182 _097_
*183 _098_
*184 _099_
*185 _100_
*186 _101_
*187 _102_
*188 _103_
*189 _104_
*190 _105_
*191 _106_
*192 _107_
*193 _108_
*194 _109_
*195 _110_
*196 _111_
*197 _112_
*198 _113_
*199 _114_
*200 _115_
*201 _116_
*202 _117_
*203 _118_
*204 _119_
*205 _120_
*206 _121_
*207 _122_
*208 _123_
*209 _124_
*210 _125_
*211 _126_
*212 _127_
*213 _128_
*214 _129_
*215 _130_
*216 _131_
*217 _132_
*218 _133_
*219 _134_
*220 _135_
*221 _136_
*222 _137_
*223 _138_
*224 _139_
*225 _140_
*226 _141_
*227 _142_
*228 _143_
*229 _144_
*230 _145_
*231 _146_
*232 _147_
*233 _148_
*234 _149_
*235 _150_
*236 _151_
*237 _152_
*238 _153_
*239 _154_
*240 _155_
*241 _156_
*242 _157_
*243 _158_
*244 _159_
*245 _160_
*246 _161_
*247 _162_
*248 _163_
*249 _164_
*250 _165_
*251 _166_
*252 _167_
*253 _168_
*254 _169_
*255 _170_
*256 _171_
*257 _172_
*258 _173_
*259 _174_
*260 _175_
*261 _176_
*262 _177_
*263 _178_
*264 _179_
*265 _180_
*266 _181_
*267 _182_
*268 _183_
*269 _184_
*270 _185_
*271 _186_
*272 _187_
*273 _188_
*274 _189_
*275 _190_
*276 _191_
*277 _192_
*278 _193_
*279 _194_
*280 _195_
*281 _196_
*282 _197_
*283 _198_
*284 _199_
*285 _200_
*286 _201_
*287 _202_
*288 _203_
*289 _204_
*290 _205_
*291 _206_
*292 _207_
*293 _208_
*294 _209_
*295 _210_
*296 _211_
*297 _212_
*298 _213_
*299 _214_
*300 _215_
*301 _216_
*302 _217_
*303 _218_
*304 _219_
*305 _220_
*306 _221_
*307 _222_
*308 _223_
*309 _224_
*310 _225_
*311 _226_
*312 _227_
*313 _228_
*314 _229_
*315 _230_
*316 _231_
*317 _232_
*318 net1
*319 net10
*320 net11
*321 net12
*322 net13
*323 net14
*324 net2
*325 net3
*326 net35
*327 net36
*328 net4
*329 net5
*330 net6
*331 net7
*332 net8
*333 net9
*334 FILLER_0_0_109
*335 FILLER_0_0_113
*336 FILLER_0_0_125
*337 FILLER_0_0_137
*338 FILLER_0_0_141
*339 FILLER_0_0_15
*340 FILLER_0_0_153
*341 FILLER_0_0_165
*342 FILLER_0_0_169
*343 FILLER_0_0_181
*344 FILLER_0_0_193
*345 FILLER_0_0_197
*346 FILLER_0_0_209
*347 FILLER_0_0_221
*348 FILLER_0_0_225
*349 FILLER_0_0_237
*350 FILLER_0_0_249
*351 FILLER_0_0_253
*352 FILLER_0_0_265
*353 FILLER_0_0_27
*354 FILLER_0_0_277
*355 FILLER_0_0_281
*356 FILLER_0_0_29
*357 FILLER_0_0_293
*358 FILLER_0_0_3
*359 FILLER_0_0_305
*360 FILLER_0_0_309
*361 FILLER_0_0_321
*362 FILLER_0_0_333
*363 FILLER_0_0_41
*364 FILLER_0_0_53
*365 FILLER_0_0_57
*366 FILLER_0_0_69
*367 FILLER_0_0_81
*368 FILLER_0_0_85
*369 FILLER_0_0_97
*370 FILLER_0_10_109
*371 FILLER_0_10_121
*372 FILLER_0_10_133
*373 FILLER_0_10_139
*374 FILLER_0_10_141
*375 FILLER_0_10_15
*376 FILLER_0_10_153
*377 FILLER_0_10_165
*378 FILLER_0_10_177
*379 FILLER_0_10_189
*380 FILLER_0_10_195
*381 FILLER_0_10_197
*382 FILLER_0_10_209
*383 FILLER_0_10_221
*384 FILLER_0_10_233
*385 FILLER_0_10_245
*386 FILLER_0_10_251
*387 FILLER_0_10_253
*388 FILLER_0_10_265
*389 FILLER_0_10_27
*390 FILLER_0_10_277
*391 FILLER_0_10_289
*392 FILLER_0_10_29
*393 FILLER_0_10_3
*394 FILLER_0_10_301
*395 FILLER_0_10_307
*396 FILLER_0_10_309
*397 FILLER_0_10_321
*398 FILLER_0_10_333
*399 FILLER_0_10_41
*400 FILLER_0_10_53
*401 FILLER_0_10_65
*402 FILLER_0_10_77
*403 FILLER_0_10_83
*404 FILLER_0_10_85
*405 FILLER_0_10_97
*406 FILLER_0_11_105
*407 FILLER_0_11_111
*408 FILLER_0_11_113
*409 FILLER_0_11_125
*410 FILLER_0_11_137
*411 FILLER_0_11_149
*412 FILLER_0_11_15
*413 FILLER_0_11_161
*414 FILLER_0_11_167
*415 FILLER_0_11_169
*416 FILLER_0_11_181
*417 FILLER_0_11_193
*418 FILLER_0_11_205
*419 FILLER_0_11_217
*420 FILLER_0_11_223
*421 FILLER_0_11_225
*422 FILLER_0_11_237
*423 FILLER_0_11_249
*424 FILLER_0_11_261
*425 FILLER_0_11_27
*426 FILLER_0_11_273
*427 FILLER_0_11_279
*428 FILLER_0_11_281
*429 FILLER_0_11_293
*430 FILLER_0_11_3
*431 FILLER_0_11_305
*432 FILLER_0_11_317
*433 FILLER_0_11_329
*434 FILLER_0_11_39
*435 FILLER_0_11_51
*436 FILLER_0_11_55
*437 FILLER_0_11_57
*438 FILLER_0_11_69
*439 FILLER_0_11_81
*440 FILLER_0_11_93
*441 FILLER_0_12_109
*442 FILLER_0_12_121
*443 FILLER_0_12_133
*444 FILLER_0_12_139
*445 FILLER_0_12_141
*446 FILLER_0_12_15
*447 FILLER_0_12_153
*448 FILLER_0_12_165
*449 FILLER_0_12_177
*450 FILLER_0_12_189
*451 FILLER_0_12_195
*452 FILLER_0_12_197
*453 FILLER_0_12_209
*454 FILLER_0_12_221
*455 FILLER_0_12_233
*456 FILLER_0_12_245
*457 FILLER_0_12_251
*458 FILLER_0_12_253
*459 FILLER_0_12_265
*460 FILLER_0_12_27
*461 FILLER_0_12_277
*462 FILLER_0_12_289
*463 FILLER_0_12_29
*464 FILLER_0_12_3
*465 FILLER_0_12_301
*466 FILLER_0_12_307
*467 FILLER_0_12_309
*468 FILLER_0_12_321
*469 FILLER_0_12_333
*470 FILLER_0_12_41
*471 FILLER_0_12_53
*472 FILLER_0_12_65
*473 FILLER_0_12_77
*474 FILLER_0_12_83
*475 FILLER_0_12_85
*476 FILLER_0_12_97
*477 FILLER_0_13_105
*478 FILLER_0_13_111
*479 FILLER_0_13_113
*480 FILLER_0_13_125
*481 FILLER_0_13_137
*482 FILLER_0_13_149
*483 FILLER_0_13_15
*484 FILLER_0_13_161
*485 FILLER_0_13_167
*486 FILLER_0_13_169
*487 FILLER_0_13_181
*488 FILLER_0_13_193
*489 FILLER_0_13_205
*490 FILLER_0_13_217
*491 FILLER_0_13_223
*492 FILLER_0_13_225
*493 FILLER_0_13_237
*494 FILLER_0_13_249
*495 FILLER_0_13_261
*496 FILLER_0_13_27
*497 FILLER_0_13_273
*498 FILLER_0_13_279
*499 FILLER_0_13_281
*500 FILLER_0_13_293
*501 FILLER_0_13_3
*502 FILLER_0_13_305
*503 FILLER_0_13_317
*504 FILLER_0_13_329
*505 FILLER_0_13_39
*506 FILLER_0_13_51
*507 FILLER_0_13_55
*508 FILLER_0_13_57
*509 FILLER_0_13_69
*510 FILLER_0_13_81
*511 FILLER_0_13_93
*512 FILLER_0_14_109
*513 FILLER_0_14_121
*514 FILLER_0_14_133
*515 FILLER_0_14_139
*516 FILLER_0_14_141
*517 FILLER_0_14_15
*518 FILLER_0_14_153
*519 FILLER_0_14_165
*520 FILLER_0_14_177
*521 FILLER_0_14_189
*522 FILLER_0_14_195
*523 FILLER_0_14_197
*524 FILLER_0_14_209
*525 FILLER_0_14_221
*526 FILLER_0_14_233
*527 FILLER_0_14_245
*528 FILLER_0_14_251
*529 FILLER_0_14_253
*530 FILLER_0_14_265
*531 FILLER_0_14_27
*532 FILLER_0_14_277
*533 FILLER_0_14_289
*534 FILLER_0_14_29
*535 FILLER_0_14_3
*536 FILLER_0_14_301
*537 FILLER_0_14_307
*538 FILLER_0_14_309
*539 FILLER_0_14_321
*540 FILLER_0_14_333
*541 FILLER_0_14_41
*542 FILLER_0_14_53
*543 FILLER_0_14_65
*544 FILLER_0_14_77
*545 FILLER_0_14_83
*546 FILLER_0_14_85
*547 FILLER_0_14_97
*548 FILLER_0_15_105
*549 FILLER_0_15_111
*550 FILLER_0_15_113
*551 FILLER_0_15_125
*552 FILLER_0_15_137
*553 FILLER_0_15_149
*554 FILLER_0_15_15
*555 FILLER_0_15_161
*556 FILLER_0_15_167
*557 FILLER_0_15_169
*558 FILLER_0_15_181
*559 FILLER_0_15_193
*560 FILLER_0_15_205
*561 FILLER_0_15_217
*562 FILLER_0_15_223
*563 FILLER_0_15_225
*564 FILLER_0_15_237
*565 FILLER_0_15_249
*566 FILLER_0_15_261
*567 FILLER_0_15_27
*568 FILLER_0_15_273
*569 FILLER_0_15_279
*570 FILLER_0_15_281
*571 FILLER_0_15_293
*572 FILLER_0_15_3
*573 FILLER_0_15_305
*574 FILLER_0_15_317
*575 FILLER_0_15_329
*576 FILLER_0_15_39
*577 FILLER_0_15_51
*578 FILLER_0_15_55
*579 FILLER_0_15_57
*580 FILLER_0_15_69
*581 FILLER_0_15_81
*582 FILLER_0_15_93
*583 FILLER_0_16_109
*584 FILLER_0_16_121
*585 FILLER_0_16_133
*586 FILLER_0_16_139
*587 FILLER_0_16_141
*588 FILLER_0_16_15
*589 FILLER_0_16_153
*590 FILLER_0_16_165
*591 FILLER_0_16_177
*592 FILLER_0_16_189
*593 FILLER_0_16_195
*594 FILLER_0_16_197
*595 FILLER_0_16_209
*596 FILLER_0_16_221
*597 FILLER_0_16_233
*598 FILLER_0_16_245
*599 FILLER_0_16_251
*600 FILLER_0_16_253
*601 FILLER_0_16_265
*602 FILLER_0_16_27
*603 FILLER_0_16_277
*604 FILLER_0_16_289
*605 FILLER_0_16_29
*606 FILLER_0_16_3
*607 FILLER_0_16_301
*608 FILLER_0_16_307
*609 FILLER_0_16_309
*610 FILLER_0_16_321
*611 FILLER_0_16_333
*612 FILLER_0_16_41
*613 FILLER_0_16_53
*614 FILLER_0_16_65
*615 FILLER_0_16_77
*616 FILLER_0_16_83
*617 FILLER_0_16_85
*618 FILLER_0_16_97
*619 FILLER_0_17_105
*620 FILLER_0_17_111
*621 FILLER_0_17_113
*622 FILLER_0_17_125
*623 FILLER_0_17_137
*624 FILLER_0_17_149
*625 FILLER_0_17_15
*626 FILLER_0_17_161
*627 FILLER_0_17_167
*628 FILLER_0_17_169
*629 FILLER_0_17_181
*630 FILLER_0_17_193
*631 FILLER_0_17_205
*632 FILLER_0_17_217
*633 FILLER_0_17_223
*634 FILLER_0_17_225
*635 FILLER_0_17_237
*636 FILLER_0_17_249
*637 FILLER_0_17_261
*638 FILLER_0_17_27
*639 FILLER_0_17_273
*640 FILLER_0_17_279
*641 FILLER_0_17_281
*642 FILLER_0_17_293
*643 FILLER_0_17_3
*644 FILLER_0_17_305
*645 FILLER_0_17_317
*646 FILLER_0_17_329
*647 FILLER_0_17_39
*648 FILLER_0_17_51
*649 FILLER_0_17_55
*650 FILLER_0_17_57
*651 FILLER_0_17_69
*652 FILLER_0_17_81
*653 FILLER_0_17_93
*654 FILLER_0_18_109
*655 FILLER_0_18_121
*656 FILLER_0_18_133
*657 FILLER_0_18_139
*658 FILLER_0_18_141
*659 FILLER_0_18_15
*660 FILLER_0_18_153
*661 FILLER_0_18_165
*662 FILLER_0_18_177
*663 FILLER_0_18_189
*664 FILLER_0_18_195
*665 FILLER_0_18_197
*666 FILLER_0_18_209
*667 FILLER_0_18_221
*668 FILLER_0_18_233
*669 FILLER_0_18_245
*670 FILLER_0_18_251
*671 FILLER_0_18_253
*672 FILLER_0_18_265
*673 FILLER_0_18_27
*674 FILLER_0_18_277
*675 FILLER_0_18_289
*676 FILLER_0_18_29
*677 FILLER_0_18_3
*678 FILLER_0_18_301
*679 FILLER_0_18_307
*680 FILLER_0_18_309
*681 FILLER_0_18_321
*682 FILLER_0_18_333
*683 FILLER_0_18_41
*684 FILLER_0_18_53
*685 FILLER_0_18_65
*686 FILLER_0_18_77
*687 FILLER_0_18_83
*688 FILLER_0_18_85
*689 FILLER_0_18_97
*690 FILLER_0_19_105
*691 FILLER_0_19_111
*692 FILLER_0_19_113
*693 FILLER_0_19_125
*694 FILLER_0_19_137
*695 FILLER_0_19_149
*696 FILLER_0_19_15
*697 FILLER_0_19_161
*698 FILLER_0_19_167
*699 FILLER_0_19_169
*700 FILLER_0_19_181
*701 FILLER_0_19_193
*702 FILLER_0_19_205
*703 FILLER_0_19_217
*704 FILLER_0_19_223
*705 FILLER_0_19_225
*706 FILLER_0_19_237
*707 FILLER_0_19_249
*708 FILLER_0_19_261
*709 FILLER_0_19_27
*710 FILLER_0_19_273
*711 FILLER_0_19_279
*712 FILLER_0_19_281
*713 FILLER_0_19_293
*714 FILLER_0_19_3
*715 FILLER_0_19_305
*716 FILLER_0_19_317
*717 FILLER_0_19_329
*718 FILLER_0_19_39
*719 FILLER_0_19_51
*720 FILLER_0_19_55
*721 FILLER_0_19_57
*722 FILLER_0_19_69
*723 FILLER_0_19_81
*724 FILLER_0_19_93
*725 FILLER_0_1_105
*726 FILLER_0_1_111
*727 FILLER_0_1_113
*728 FILLER_0_1_125
*729 FILLER_0_1_137
*730 FILLER_0_1_149
*731 FILLER_0_1_15
*732 FILLER_0_1_161
*733 FILLER_0_1_167
*734 FILLER_0_1_169
*735 FILLER_0_1_181
*736 FILLER_0_1_193
*737 FILLER_0_1_205
*738 FILLER_0_1_217
*739 FILLER_0_1_223
*740 FILLER_0_1_225
*741 FILLER_0_1_237
*742 FILLER_0_1_249
*743 FILLER_0_1_261
*744 FILLER_0_1_27
*745 FILLER_0_1_273
*746 FILLER_0_1_279
*747 FILLER_0_1_281
*748 FILLER_0_1_293
*749 FILLER_0_1_3
*750 FILLER_0_1_305
*751 FILLER_0_1_317
*752 FILLER_0_1_329
*753 FILLER_0_1_39
*754 FILLER_0_1_51
*755 FILLER_0_1_55
*756 FILLER_0_1_57
*757 FILLER_0_1_69
*758 FILLER_0_1_81
*759 FILLER_0_1_93
*760 FILLER_0_20_109
*761 FILLER_0_20_121
*762 FILLER_0_20_133
*763 FILLER_0_20_139
*764 FILLER_0_20_141
*765 FILLER_0_20_15
*766 FILLER_0_20_153
*767 FILLER_0_20_165
*768 FILLER_0_20_177
*769 FILLER_0_20_189
*770 FILLER_0_20_195
*771 FILLER_0_20_197
*772 FILLER_0_20_209
*773 FILLER_0_20_221
*774 FILLER_0_20_233
*775 FILLER_0_20_245
*776 FILLER_0_20_251
*777 FILLER_0_20_253
*778 FILLER_0_20_265
*779 FILLER_0_20_27
*780 FILLER_0_20_277
*781 FILLER_0_20_289
*782 FILLER_0_20_29
*783 FILLER_0_20_3
*784 FILLER_0_20_301
*785 FILLER_0_20_307
*786 FILLER_0_20_309
*787 FILLER_0_20_321
*788 FILLER_0_20_333
*789 FILLER_0_20_41
*790 FILLER_0_20_53
*791 FILLER_0_20_65
*792 FILLER_0_20_77
*793 FILLER_0_20_83
*794 FILLER_0_20_85
*795 FILLER_0_20_97
*796 FILLER_0_21_105
*797 FILLER_0_21_111
*798 FILLER_0_21_113
*799 FILLER_0_21_125
*800 FILLER_0_21_137
*801 FILLER_0_21_149
*802 FILLER_0_21_15
*803 FILLER_0_21_161
*804 FILLER_0_21_167
*805 FILLER_0_21_169
*806 FILLER_0_21_181
*807 FILLER_0_21_193
*808 FILLER_0_21_205
*809 FILLER_0_21_217
*810 FILLER_0_21_223
*811 FILLER_0_21_225
*812 FILLER_0_21_237
*813 FILLER_0_21_249
*814 FILLER_0_21_261
*815 FILLER_0_21_27
*816 FILLER_0_21_273
*817 FILLER_0_21_279
*818 FILLER_0_21_281
*819 FILLER_0_21_293
*820 FILLER_0_21_3
*821 FILLER_0_21_305
*822 FILLER_0_21_317
*823 FILLER_0_21_329
*824 FILLER_0_21_39
*825 FILLER_0_21_51
*826 FILLER_0_21_55
*827 FILLER_0_21_57
*828 FILLER_0_21_69
*829 FILLER_0_21_81
*830 FILLER_0_21_93
*831 FILLER_0_22_109
*832 FILLER_0_22_121
*833 FILLER_0_22_133
*834 FILLER_0_22_139
*835 FILLER_0_22_141
*836 FILLER_0_22_15
*837 FILLER_0_22_157
*838 FILLER_0_22_171
*839 FILLER_0_22_176
*840 FILLER_0_22_188
*841 FILLER_0_22_197
*842 FILLER_0_22_203
*843 FILLER_0_22_207
*844 FILLER_0_22_219
*845 FILLER_0_22_245
*846 FILLER_0_22_251
*847 FILLER_0_22_253
*848 FILLER_0_22_265
*849 FILLER_0_22_27
*850 FILLER_0_22_277
*851 FILLER_0_22_289
*852 FILLER_0_22_29
*853 FILLER_0_22_3
*854 FILLER_0_22_301
*855 FILLER_0_22_307
*856 FILLER_0_22_309
*857 FILLER_0_22_321
*858 FILLER_0_22_333
*859 FILLER_0_22_41
*860 FILLER_0_22_53
*861 FILLER_0_22_65
*862 FILLER_0_22_77
*863 FILLER_0_22_83
*864 FILLER_0_22_85
*865 FILLER_0_22_97
*866 FILLER_0_23_105
*867 FILLER_0_23_111
*868 FILLER_0_23_113
*869 FILLER_0_23_125
*870 FILLER_0_23_137
*871 FILLER_0_23_15
*872 FILLER_0_23_189
*873 FILLER_0_23_193
*874 FILLER_0_23_217
*875 FILLER_0_23_223
*876 FILLER_0_23_246
*877 FILLER_0_23_258
*878 FILLER_0_23_27
*879 FILLER_0_23_270
*880 FILLER_0_23_278
*881 FILLER_0_23_281
*882 FILLER_0_23_285
*883 FILLER_0_23_3
*884 FILLER_0_23_307
*885 FILLER_0_23_319
*886 FILLER_0_23_331
*887 FILLER_0_23_39
*888 FILLER_0_23_51
*889 FILLER_0_23_55
*890 FILLER_0_23_57
*891 FILLER_0_23_69
*892 FILLER_0_23_81
*893 FILLER_0_23_93
*894 FILLER_0_24_109
*895 FILLER_0_24_121
*896 FILLER_0_24_133
*897 FILLER_0_24_15
*898 FILLER_0_24_161
*899 FILLER_0_24_181
*900 FILLER_0_24_193
*901 FILLER_0_24_207
*902 FILLER_0_24_219
*903 FILLER_0_24_223
*904 FILLER_0_24_243
*905 FILLER_0_24_251
*906 FILLER_0_24_253
*907 FILLER_0_24_265
*908 FILLER_0_24_27
*909 FILLER_0_24_288
*910 FILLER_0_24_29
*911 FILLER_0_24_3
*912 FILLER_0_24_300
*913 FILLER_0_24_309
*914 FILLER_0_24_321
*915 FILLER_0_24_333
*916 FILLER_0_24_41
*917 FILLER_0_24_53
*918 FILLER_0_24_65
*919 FILLER_0_24_77
*920 FILLER_0_24_83
*921 FILLER_0_24_85
*922 FILLER_0_24_97
*923 FILLER_0_25_105
*924 FILLER_0_25_111
*925 FILLER_0_25_113
*926 FILLER_0_25_125
*927 FILLER_0_25_137
*928 FILLER_0_25_15
*929 FILLER_0_25_161
*930 FILLER_0_25_167
*931 FILLER_0_25_176
*932 FILLER_0_25_188
*933 FILLER_0_25_213
*934 FILLER_0_25_221
*935 FILLER_0_25_225
*936 FILLER_0_25_232
*937 FILLER_0_25_243
*938 FILLER_0_25_255
*939 FILLER_0_25_27
*940 FILLER_0_25_278
*941 FILLER_0_25_287
*942 FILLER_0_25_3
*943 FILLER_0_25_320
*944 FILLER_0_25_332
*945 FILLER_0_25_39
*946 FILLER_0_25_51
*947 FILLER_0_25_55
*948 FILLER_0_25_57
*949 FILLER_0_25_69
*950 FILLER_0_25_81
*951 FILLER_0_25_93
*952 FILLER_0_26_109
*953 FILLER_0_26_121
*954 FILLER_0_26_133
*955 FILLER_0_26_139
*956 FILLER_0_26_141
*957 FILLER_0_26_147
*958 FILLER_0_26_15
*959 FILLER_0_26_157
*960 FILLER_0_26_180
*961 FILLER_0_26_184
*962 FILLER_0_26_188
*963 FILLER_0_26_194
*964 FILLER_0_26_206
*965 FILLER_0_26_218
*966 FILLER_0_26_226
*967 FILLER_0_26_251
*968 FILLER_0_26_258
*969 FILLER_0_26_266
*970 FILLER_0_26_27
*971 FILLER_0_26_278
*972 FILLER_0_26_29
*973 FILLER_0_26_290
*974 FILLER_0_26_3
*975 FILLER_0_26_302
*976 FILLER_0_26_309
*977 FILLER_0_26_313
*978 FILLER_0_26_325
*979 FILLER_0_26_333
*980 FILLER_0_26_41
*981 FILLER_0_26_53
*982 FILLER_0_26_65
*983 FILLER_0_26_77
*984 FILLER_0_26_83
*985 FILLER_0_26_85
*986 FILLER_0_26_97
*987 FILLER_0_27_105
*988 FILLER_0_27_111
*989 FILLER_0_27_113
*990 FILLER_0_27_119
*991 FILLER_0_27_141
*992 FILLER_0_27_15
*993 FILLER_0_27_165
*994 FILLER_0_27_172
*995 FILLER_0_27_198
*996 FILLER_0_27_210
*997 FILLER_0_27_223
*998 FILLER_0_27_225
*999 FILLER_0_27_231
*1000 FILLER_0_27_238
*1001 FILLER_0_27_255
*1002 FILLER_0_27_266
*1003 FILLER_0_27_27
*1004 FILLER_0_27_274
*1005 FILLER_0_27_297
*1006 FILLER_0_27_3
*1007 FILLER_0_27_309
*1008 FILLER_0_27_318
*1009 FILLER_0_27_330
*1010 FILLER_0_27_334
*1011 FILLER_0_27_39
*1012 FILLER_0_27_51
*1013 FILLER_0_27_55
*1014 FILLER_0_27_57
*1015 FILLER_0_27_69
*1016 FILLER_0_27_77
*1017 FILLER_0_27_81
*1018 FILLER_0_27_93
*1019 FILLER_0_28_100
*1020 FILLER_0_28_108
*1021 FILLER_0_28_133
*1022 FILLER_0_28_139
*1023 FILLER_0_28_141
*1024 FILLER_0_28_15
*1025 FILLER_0_28_153
*1026 FILLER_0_28_165
*1027 FILLER_0_28_171
*1028 FILLER_0_28_179
*1029 FILLER_0_28_197
*1030 FILLER_0_28_209
*1031 FILLER_0_28_221
*1032 FILLER_0_28_250
*1033 FILLER_0_28_258
*1034 FILLER_0_28_266
*1035 FILLER_0_28_27
*1036 FILLER_0_28_29
*1037 FILLER_0_28_298
*1038 FILLER_0_28_3
*1039 FILLER_0_28_306
*1040 FILLER_0_28_332
*1041 FILLER_0_28_41
*1042 FILLER_0_28_53
*1043 FILLER_0_28_61
*1044 FILLER_0_28_88
*1045 FILLER_0_29_106
*1046 FILLER_0_29_116
*1047 FILLER_0_29_126
*1048 FILLER_0_29_138
*1049 FILLER_0_29_15
*1050 FILLER_0_29_153
*1051 FILLER_0_29_165
*1052 FILLER_0_29_169
*1053 FILLER_0_29_181
*1054 FILLER_0_29_185
*1055 FILLER_0_29_191
*1056 FILLER_0_29_196
*1057 FILLER_0_29_200
*1058 FILLER_0_29_219
*1059 FILLER_0_29_223
*1060 FILLER_0_29_225
*1061 FILLER_0_29_235
*1062 FILLER_0_29_243
*1063 FILLER_0_29_255
*1064 FILLER_0_29_27
*1065 FILLER_0_29_271
*1066 FILLER_0_29_279
*1067 FILLER_0_29_291
*1068 FILLER_0_29_297
*1069 FILLER_0_29_3
*1070 FILLER_0_29_328
*1071 FILLER_0_29_334
*1072 FILLER_0_29_39
*1073 FILLER_0_29_51
*1074 FILLER_0_29_55
*1075 FILLER_0_29_57
*1076 FILLER_0_29_63
*1077 FILLER_0_29_94
*1078 FILLER_0_2_109
*1079 FILLER_0_2_121
*1080 FILLER_0_2_133
*1081 FILLER_0_2_139
*1082 FILLER_0_2_141
*1083 FILLER_0_2_15
*1084 FILLER_0_2_153
*1085 FILLER_0_2_165
*1086 FILLER_0_2_177
*1087 FILLER_0_2_189
*1088 FILLER_0_2_195
*1089 FILLER_0_2_197
*1090 FILLER_0_2_209
*1091 FILLER_0_2_221
*1092 FILLER_0_2_233
*1093 FILLER_0_2_245
*1094 FILLER_0_2_251
*1095 FILLER_0_2_253
*1096 FILLER_0_2_265
*1097 FILLER_0_2_27
*1098 FILLER_0_2_277
*1099 FILLER_0_2_289
*1100 FILLER_0_2_29
*1101 FILLER_0_2_3
*1102 FILLER_0_2_301
*1103 FILLER_0_2_307
*1104 FILLER_0_2_309
*1105 FILLER_0_2_321
*1106 FILLER_0_2_333
*1107 FILLER_0_2_41
*1108 FILLER_0_2_53
*1109 FILLER_0_2_65
*1110 FILLER_0_2_77
*1111 FILLER_0_2_83
*1112 FILLER_0_2_85
*1113 FILLER_0_2_97
*1114 FILLER_0_30_121
*1115 FILLER_0_30_128
*1116 FILLER_0_30_15
*1117 FILLER_0_30_162
*1118 FILLER_0_30_174
*1119 FILLER_0_30_189
*1120 FILLER_0_30_212
*1121 FILLER_0_30_245
*1122 FILLER_0_30_251
*1123 FILLER_0_30_253
*1124 FILLER_0_30_265
*1125 FILLER_0_30_27
*1126 FILLER_0_30_29
*1127 FILLER_0_30_298
*1128 FILLER_0_30_3
*1129 FILLER_0_30_306
*1130 FILLER_0_30_316
*1131 FILLER_0_30_328
*1132 FILLER_0_30_334
*1133 FILLER_0_30_41
*1134 FILLER_0_30_53
*1135 FILLER_0_30_65
*1136 FILLER_0_30_71
*1137 FILLER_0_31_100
*1138 FILLER_0_31_111
*1139 FILLER_0_31_127
*1140 FILLER_0_31_131
*1141 FILLER_0_31_15
*1142 FILLER_0_31_154
*1143 FILLER_0_31_162
*1144 FILLER_0_31_169
*1145 FILLER_0_31_173
*1146 FILLER_0_31_185
*1147 FILLER_0_31_193
*1148 FILLER_0_31_202
*1149 FILLER_0_31_210
*1150 FILLER_0_31_254
*1151 FILLER_0_31_266
*1152 FILLER_0_31_27
*1153 FILLER_0_31_278
*1154 FILLER_0_31_292
*1155 FILLER_0_31_3
*1156 FILLER_0_31_301
*1157 FILLER_0_31_313
*1158 FILLER_0_31_319
*1159 FILLER_0_31_331
*1160 FILLER_0_31_39
*1161 FILLER_0_31_51
*1162 FILLER_0_31_55
*1163 FILLER_0_31_57
*1164 FILLER_0_31_69
*1165 FILLER_0_32_104
*1166 FILLER_0_32_116
*1167 FILLER_0_32_128
*1168 FILLER_0_32_139
*1169 FILLER_0_32_15
*1170 FILLER_0_32_154
*1171 FILLER_0_32_178
*1172 FILLER_0_32_193
*1173 FILLER_0_32_207
*1174 FILLER_0_32_219
*1175 FILLER_0_32_253
*1176 FILLER_0_32_265
*1177 FILLER_0_32_27
*1178 FILLER_0_32_276
*1179 FILLER_0_32_284
*1180 FILLER_0_32_29
*1181 FILLER_0_32_296
*1182 FILLER_0_32_3
*1183 FILLER_0_32_300
*1184 FILLER_0_32_304
*1185 FILLER_0_32_330
*1186 FILLER_0_32_334
*1187 FILLER_0_32_41
*1188 FILLER_0_32_53
*1189 FILLER_0_32_65
*1190 FILLER_0_32_77
*1191 FILLER_0_32_83
*1192 FILLER_0_32_92
*1193 FILLER_0_32_96
*1194 FILLER_0_33_120
*1195 FILLER_0_33_132
*1196 FILLER_0_33_146
*1197 FILLER_0_33_15
*1198 FILLER_0_33_153
*1199 FILLER_0_33_165
*1200 FILLER_0_33_169
*1201 FILLER_0_33_181
*1202 FILLER_0_33_193
*1203 FILLER_0_33_197
*1204 FILLER_0_33_209
*1205 FILLER_0_33_221
*1206 FILLER_0_33_225
*1207 FILLER_0_33_249
*1208 FILLER_0_33_261
*1209 FILLER_0_33_27
*1210 FILLER_0_33_273
*1211 FILLER_0_33_279
*1212 FILLER_0_33_284
*1213 FILLER_0_33_297
*1214 FILLER_0_33_3
*1215 FILLER_0_33_309
*1216 FILLER_0_33_321
*1217 FILLER_0_33_333
*1218 FILLER_0_33_39
*1219 FILLER_0_33_51
*1220 FILLER_0_33_55
*1221 FILLER_0_33_57
*1222 FILLER_0_33_69
*1223 FILLER_0_33_98
*1224 FILLER_0_34_101
*1225 FILLER_0_34_114
*1226 FILLER_0_34_141
*1227 FILLER_0_34_149
*1228 FILLER_0_34_15
*1229 FILLER_0_34_161
*1230 FILLER_0_34_173
*1231 FILLER_0_34_179
*1232 FILLER_0_34_186
*1233 FILLER_0_34_206
*1234 FILLER_0_34_219
*1235 FILLER_0_34_227
*1236 FILLER_0_34_239
*1237 FILLER_0_34_251
*1238 FILLER_0_34_253
*1239 FILLER_0_34_264
*1240 FILLER_0_34_27
*1241 FILLER_0_34_280
*1242 FILLER_0_34_29
*1243 FILLER_0_34_3
*1244 FILLER_0_34_312
*1245 FILLER_0_34_324
*1246 FILLER_0_34_332
*1247 FILLER_0_34_41
*1248 FILLER_0_34_53
*1249 FILLER_0_34_61
*1250 FILLER_0_34_85
*1251 FILLER_0_34_89
*1252 FILLER_0_35_100
*1253 FILLER_0_35_108
*1254 FILLER_0_35_113
*1255 FILLER_0_35_125
*1256 FILLER_0_35_129
*1257 FILLER_0_35_15
*1258 FILLER_0_35_154
*1259 FILLER_0_35_166
*1260 FILLER_0_35_169
*1261 FILLER_0_35_196
*1262 FILLER_0_35_205
*1263 FILLER_0_35_242
*1264 FILLER_0_35_250
*1265 FILLER_0_35_27
*1266 FILLER_0_35_275
*1267 FILLER_0_35_279
*1268 FILLER_0_35_288
*1269 FILLER_0_35_295
*1270 FILLER_0_35_3
*1271 FILLER_0_35_307
*1272 FILLER_0_35_319
*1273 FILLER_0_35_331
*1274 FILLER_0_35_39
*1275 FILLER_0_35_51
*1276 FILLER_0_35_55
*1277 FILLER_0_35_57
*1278 FILLER_0_35_69
*1279 FILLER_0_35_75
*1280 FILLER_0_35_79
*1281 FILLER_0_35_83
*1282 FILLER_0_35_88
*1283 FILLER_0_36_121
*1284 FILLER_0_36_130
*1285 FILLER_0_36_138
*1286 FILLER_0_36_141
*1287 FILLER_0_36_147
*1288 FILLER_0_36_15
*1289 FILLER_0_36_155
*1290 FILLER_0_36_191
*1291 FILLER_0_36_195
*1292 FILLER_0_36_197
*1293 FILLER_0_36_228
*1294 FILLER_0_36_240
*1295 FILLER_0_36_27
*1296 FILLER_0_36_29
*1297 FILLER_0_36_3
*1298 FILLER_0_36_300
*1299 FILLER_0_36_309
*1300 FILLER_0_36_321
*1301 FILLER_0_36_333
*1302 FILLER_0_36_41
*1303 FILLER_0_36_53
*1304 FILLER_0_36_65
*1305 FILLER_0_36_77
*1306 FILLER_0_36_83
*1307 FILLER_0_36_85
*1308 FILLER_0_36_93
*1309 FILLER_0_36_99
*1310 FILLER_0_37_110
*1311 FILLER_0_37_113
*1312 FILLER_0_37_141
*1313 FILLER_0_37_15
*1314 FILLER_0_37_153
*1315 FILLER_0_37_161
*1316 FILLER_0_37_166
*1317 FILLER_0_37_190
*1318 FILLER_0_37_198
*1319 FILLER_0_37_222
*1320 FILLER_0_37_231
*1321 FILLER_0_37_243
*1322 FILLER_0_37_27
*1323 FILLER_0_37_275
*1324 FILLER_0_37_279
*1325 FILLER_0_37_285
*1326 FILLER_0_37_297
*1327 FILLER_0_37_3
*1328 FILLER_0_37_309
*1329 FILLER_0_37_321
*1330 FILLER_0_37_333
*1331 FILLER_0_37_39
*1332 FILLER_0_37_51
*1333 FILLER_0_37_55
*1334 FILLER_0_37_57
*1335 FILLER_0_37_69
*1336 FILLER_0_37_77
*1337 FILLER_0_38_10
*1338 FILLER_0_38_106
*1339 FILLER_0_38_124
*1340 FILLER_0_38_130
*1341 FILLER_0_38_134
*1342 FILLER_0_38_14
*1343 FILLER_0_38_144
*1344 FILLER_0_38_150
*1345 FILLER_0_38_154
*1346 FILLER_0_38_158
*1347 FILLER_0_38_178
*1348 FILLER_0_38_18
*1349 FILLER_0_38_182
*1350 FILLER_0_38_186
*1351 FILLER_0_38_190
*1352 FILLER_0_38_200
*1353 FILLER_0_38_206
*1354 FILLER_0_38_210
*1355 FILLER_0_38_217
*1356 FILLER_0_38_22
*1357 FILLER_0_38_222
*1358 FILLER_0_38_225
*1359 FILLER_0_38_237
*1360 FILLER_0_38_249
*1361 FILLER_0_38_257
*1362 FILLER_0_38_269
*1363 FILLER_0_38_277
*1364 FILLER_0_38_281
*1365 FILLER_0_38_293
*1366 FILLER_0_38_305
*1367 FILLER_0_38_309
*1368 FILLER_0_38_32
*1369 FILLER_0_38_321
*1370 FILLER_0_38_333
*1371 FILLER_0_38_38
*1372 FILLER_0_38_42
*1373 FILLER_0_38_46
*1374 FILLER_0_38_50
*1375 FILLER_0_38_54
*1376 FILLER_0_38_57
*1377 FILLER_0_38_6
*1378 FILLER_0_38_62
*1379 FILLER_0_38_66
*1380 FILLER_0_38_70
*1381 FILLER_0_38_74
*1382 FILLER_0_38_85
*1383 FILLER_0_3_105
*1384 FILLER_0_3_111
*1385 FILLER_0_3_113
*1386 FILLER_0_3_125
*1387 FILLER_0_3_137
*1388 FILLER_0_3_149
*1389 FILLER_0_3_15
*1390 FILLER_0_3_161
*1391 FILLER_0_3_167
*1392 FILLER_0_3_169
*1393 FILLER_0_3_181
*1394 FILLER_0_3_193
*1395 FILLER_0_3_205
*1396 FILLER_0_3_217
*1397 FILLER_0_3_223
*1398 FILLER_0_3_225
*1399 FILLER_0_3_237
*1400 FILLER_0_3_249
*1401 FILLER_0_3_261
*1402 FILLER_0_3_27
*1403 FILLER_0_3_273
*1404 FILLER_0_3_279
*1405 FILLER_0_3_281
*1406 FILLER_0_3_293
*1407 FILLER_0_3_3
*1408 FILLER_0_3_305
*1409 FILLER_0_3_317
*1410 FILLER_0_3_329
*1411 FILLER_0_3_39
*1412 FILLER_0_3_51
*1413 FILLER_0_3_55
*1414 FILLER_0_3_57
*1415 FILLER_0_3_69
*1416 FILLER_0_3_81
*1417 FILLER_0_3_93
*1418 FILLER_0_4_109
*1419 FILLER_0_4_121
*1420 FILLER_0_4_133
*1421 FILLER_0_4_139
*1422 FILLER_0_4_141
*1423 FILLER_0_4_15
*1424 FILLER_0_4_153
*1425 FILLER_0_4_165
*1426 FILLER_0_4_177
*1427 FILLER_0_4_189
*1428 FILLER_0_4_195
*1429 FILLER_0_4_197
*1430 FILLER_0_4_209
*1431 FILLER_0_4_221
*1432 FILLER_0_4_233
*1433 FILLER_0_4_245
*1434 FILLER_0_4_251
*1435 FILLER_0_4_253
*1436 FILLER_0_4_265
*1437 FILLER_0_4_27
*1438 FILLER_0_4_277
*1439 FILLER_0_4_289
*1440 FILLER_0_4_29
*1441 FILLER_0_4_3
*1442 FILLER_0_4_301
*1443 FILLER_0_4_307
*1444 FILLER_0_4_309
*1445 FILLER_0_4_321
*1446 FILLER_0_4_333
*1447 FILLER_0_4_41
*1448 FILLER_0_4_53
*1449 FILLER_0_4_65
*1450 FILLER_0_4_77
*1451 FILLER_0_4_83
*1452 FILLER_0_4_85
*1453 FILLER_0_4_97
*1454 FILLER_0_5_105
*1455 FILLER_0_5_111
*1456 FILLER_0_5_113
*1457 FILLER_0_5_125
*1458 FILLER_0_5_137
*1459 FILLER_0_5_149
*1460 FILLER_0_5_15
*1461 FILLER_0_5_161
*1462 FILLER_0_5_167
*1463 FILLER_0_5_169
*1464 FILLER_0_5_181
*1465 FILLER_0_5_193
*1466 FILLER_0_5_205
*1467 FILLER_0_5_217
*1468 FILLER_0_5_223
*1469 FILLER_0_5_225
*1470 FILLER_0_5_237
*1471 FILLER_0_5_249
*1472 FILLER_0_5_261
*1473 FILLER_0_5_27
*1474 FILLER_0_5_273
*1475 FILLER_0_5_279
*1476 FILLER_0_5_281
*1477 FILLER_0_5_293
*1478 FILLER_0_5_3
*1479 FILLER_0_5_305
*1480 FILLER_0_5_317
*1481 FILLER_0_5_329
*1482 FILLER_0_5_39
*1483 FILLER_0_5_51
*1484 FILLER_0_5_55
*1485 FILLER_0_5_57
*1486 FILLER_0_5_69
*1487 FILLER_0_5_81
*1488 FILLER_0_5_93
*1489 FILLER_0_6_109
*1490 FILLER_0_6_121
*1491 FILLER_0_6_133
*1492 FILLER_0_6_139
*1493 FILLER_0_6_141
*1494 FILLER_0_6_15
*1495 FILLER_0_6_153
*1496 FILLER_0_6_165
*1497 FILLER_0_6_177
*1498 FILLER_0_6_189
*1499 FILLER_0_6_195
*1500 FILLER_0_6_197
*1501 FILLER_0_6_209
*1502 FILLER_0_6_221
*1503 FILLER_0_6_233
*1504 FILLER_0_6_245
*1505 FILLER_0_6_251
*1506 FILLER_0_6_253
*1507 FILLER_0_6_265
*1508 FILLER_0_6_27
*1509 FILLER_0_6_277
*1510 FILLER_0_6_289
*1511 FILLER_0_6_29
*1512 FILLER_0_6_3
*1513 FILLER_0_6_301
*1514 FILLER_0_6_307
*1515 FILLER_0_6_309
*1516 FILLER_0_6_321
*1517 FILLER_0_6_333
*1518 FILLER_0_6_41
*1519 FILLER_0_6_53
*1520 FILLER_0_6_65
*1521 FILLER_0_6_77
*1522 FILLER_0_6_83
*1523 FILLER_0_6_85
*1524 FILLER_0_6_97
*1525 FILLER_0_7_105
*1526 FILLER_0_7_111
*1527 FILLER_0_7_113
*1528 FILLER_0_7_125
*1529 FILLER_0_7_137
*1530 FILLER_0_7_149
*1531 FILLER_0_7_15
*1532 FILLER_0_7_161
*1533 FILLER_0_7_167
*1534 FILLER_0_7_169
*1535 FILLER_0_7_181
*1536 FILLER_0_7_193
*1537 FILLER_0_7_205
*1538 FILLER_0_7_217
*1539 FILLER_0_7_223
*1540 FILLER_0_7_225
*1541 FILLER_0_7_237
*1542 FILLER_0_7_249
*1543 FILLER_0_7_261
*1544 FILLER_0_7_27
*1545 FILLER_0_7_273
*1546 FILLER_0_7_279
*1547 FILLER_0_7_281
*1548 FILLER_0_7_293
*1549 FILLER_0_7_3
*1550 FILLER_0_7_305
*1551 FILLER_0_7_317
*1552 FILLER_0_7_329
*1553 FILLER_0_7_39
*1554 FILLER_0_7_51
*1555 FILLER_0_7_55
*1556 FILLER_0_7_57
*1557 FILLER_0_7_69