*SPEF "ieee 1481-1999"
*DESIGN "tt_um_s1pu11i_simple_nco"
*DATE "17:43:29 Thursday April 18, 2024"
*VENDOR "The OpenROAD Project"
*PROGRAM "OpenROAD"
*VERSION "0889970d1790a2617e69f253221b8bd7626e51dc"
*DESIGN_FLOW "NAME_SCOPE LOCAL" "PIN_CAP NONE"
*DIVIDER /
*DELIMITER :
*BUS_DELIMITER []
*T_UNIT 1 NS
*C_UNIT 1 PF
*R_UNIT 1 OHM
*L_UNIT 1 HENRY

*NAME_MAP
*3 clk
*4 ena
*5 rst_n
*6 ui_in[0]
*7 ui_in[1]
*8 ui_in[2]
*9 ui_in[3]
*10 ui_in[4]
*11 ui_in[5]
*12 ui_in[6]
*13 ui_in[7]
*14 uio_in[0]
*15 uio_in[1]
*16 uio_in[2]
*17 uio_in[3]
*18 uio_in[4]
*19 uio_in[5]
*20 uio_in[6]
*21 uio_in[7]
*22 net23
*23 net24
*24 net25
*25 net26
*26 net27
*27 net28
*28 net29
*29 net30
*30 net31
*31 net32
*32 net33
*33 net34
*34 net35
*35 net36
*36 net37
*37 net38
*38 uo_out[0]
*39 uo_out[1]
*40 uo_out[2]
*41 uo_out[3]
*42 uo_out[4]
*43 uo_out[5]
*44 uo_out[6]
*45 uo_out[7]
*46 _000_
*47 _001_
*48 _002_
*49 _003_
*50 _004_
*51 _005_
*52 _006_
*53 _007_
*54 _008_
*55 _009_
*56 _010_
*57 _011_
*58 _012_
*59 _013_
*60 _014_
*61 _015_
*62 _016_
*63 _017_
*64 _018_
*65 _019_
*66 _020_
*67 _021_
*68 _022_
*69 _023_
*70 _024_
*71 _025_
*72 _026_
*73 _027_
*74 _028_
*75 _029_
*76 _030_
*77 _031_
*78 _032_
*79 _033_
*80 _034_
*81 _035_
*82 _036_
*83 _037_
*84 _038_
*85 _039_
*86 _040_
*87 _041_
*88 _042_
*89 _043_
*90 _044_
*91 _045_
*92 _046_
*93 _047_
*94 _048_
*95 _049_
*96 _050_
*97 _051_
*98 _052_
*99 _053_
*100 _054_
*101 _055_
*102 _056_
*103 _057_
*104 _058_
*105 _059_
*106 _060_
*107 _061_
*108 _062_
*109 _063_
*110 _064_
*111 _065_
*112 _066_
*113 _067_
*114 _068_
*115 _069_
*116 _070_
*117 _071_
*118 _072_
*119 _073_
*120 _074_
*121 _075_
*122 _076_
*123 _077_
*124 _078_
*125 _079_
*126 _080_
*127 _081_
*128 _082_
*129 _083_
*130 _084_
*131 _085_
*132 _086_
*133 _087_
*134 _088_
*135 _089_
*136 _090_
*137 _091_
*138 _092_
*139 _093_
*140 _094_
*141 _095_
*142 _096_
*143 _097_
*144 _098_
*145 _099_
*146 _100_
*147 _101_
*148 _102_
*149 _103_
*150 _104_
*151 _105_
*152 _106_
*153 _107_
*154 _108_
*155 _109_
*156 _110_
*157 _111_
*158 _112_
*159 _113_
*160 _114_
*161 _115_
*162 _116_
*163 _117_
*164 _118_
*165 _119_
*166 _120_
*167 _121_
*168 _122_
*169 _123_
*170 _124_
*171 _125_
*172 _126_
*173 _127_
*174 _128_
*175 _129_
*176 _130_
*177 _131_
*178 _132_
*179 _133_
*180 _134_
*181 _135_
*182 _136_
*183 _137_
*184 _138_
*185 _139_
*186 _140_
*187 _141_
*188 _142_
*189 _143_
*190 _144_
*191 _145_
*192 _146_
*193 _147_
*194 _148_
*195 _149_
*196 _150_
*197 _151_
*198 _152_
*199 _153_
*200 _154_
*201 _155_
*202 _156_
*203 _157_
*204 _158_
*205 _159_
*206 _160_
*207 _161_
*208 _162_
*209 _163_
*210 _164_
*211 _165_
*212 _166_
*213 _167_
*214 _168_
*215 _169_
*216 _170_
*217 _171_
*218 _172_
*219 _173_
*220 _174_
*221 _175_
*222 _176_
*223 _177_
*224 _178_
*225 _179_
*226 _180_
*227 _181_
*228 _182_
*229 _183_
*230 _184_
*231 _185_
*232 _186_
*233 _187_
*234 _188_
*235 _189_
*236 _190_
*237 _191_
*238 _192_
*239 _193_
*240 _194_
*241 _195_
*242 _196_
*243 _197_
*244 _198_
*245 _199_
*246 _200_
*247 _201_
*248 _202_
*249 _203_
*250 _204_
*251 _205_
*252 _206_
*253 _207_
*254 _208_
*255 _209_
*256 _210_
*257 _211_
*258 _212_
*259 _213_
*260 _214_
*261 _215_
*262 _216_
*263 _217_
*264 _218_
*265 _219_
*266 _220_
*267 _221_
*268 _222_
*269 _223_
*270 _224_
*271 _225_
*272 _226_
*273 _227_
*274 _228_
*275 _229_
*276 _230_
*277 _231_
*278 _232_
*279 _233_
*280 _234_
*281 _235_
*282 _236_
*283 _237_
*284 _238_
*285 _239_
*286 _240_
*287 _241_
*288 _242_
*289 _243_
*290 _244_
*291 _245_
*292 _246_
*293 _247_
*294 _248_
*295 _249_
*296 _250_
*297 _251_
*298 _252_
*299 _253_
*300 _254_
*301 _255_
*302 _256_
*303 _257_
*304 _258_
*305 _259_
*306 _260_
*307 _261_
*308 _262_
*309 _263_
*310 _264_
*311 _265_
*312 _266_
*313 _267_
*314 _268_
*315 _269_
*316 _270_
*317 _271_
*318 _272_
*319 _273_
*320 _274_
*321 _275_
*322 _276_
*323 _277_
*324 _278_
*325 _279_
*326 _280_
*327 _281_
*328 _282_
*329 _283_
*330 _284_
*331 _285_
*332 _286_
*333 _287_
*334 _288_
*335 _289_
*336 _290_
*337 _291_
*338 _292_
*339 _293_
*340 _294_
*341 _295_
*342 _296_
*343 _297_
*344 _298_
*345 _299_
*346 _300_
*347 _301_
*348 _302_
*349 _303_
*350 _304_
*351 _305_
*352 _306_
*353 _307_
*354 _308_
*355 _309_
*356 _310_
*357 _311_
*358 _312_
*359 _313_
*360 _314_
*361 _315_
*362 _316_
*363 _317_
*364 _318_
*365 _319_
*366 _320_
*367 _321_
*368 _322_
*369 _323_
*370 _324_
*371 _325_
*372 _326_
*373 _327_
*374 _328_
*375 _329_
*376 _330_
*377 _331_
*378 _332_
*379 _333_
*380 _334_
*381 _335_
*382 _336_
*383 _337_
*384 _338_
*385 _339_
*386 _340_
*387 _341_
*388 _342_
*389 _343_
*390 _344_
*391 _345_
*392 _346_
*393 _347_
*394 _348_
*395 _349_
*396 _350_
*397 _351_
*398 _352_
*399 _353_
*400 _354_
*401 _355_
*402 _356_
*403 _357_
*404 _358_
*405 _359_
*406 _360_
*407 _361_
*408 _362_
*409 _363_
*410 _364_
*411 _365_
*412 _366_
*413 _367_
*414 _368_
*415 _369_
*416 _370_
*417 _371_
*418 _372_
*419 _373_
*420 _374_
*421 _375_
*422 _376_
*423 _377_
*424 _378_
*425 _379_
*426 _380_
*427 _381_
*428 _382_
*429 _383_
*430 _384_
*431 _385_
*432 _386_
*433 _387_
*434 _388_
*435 _389_
*436 _390_
*437 _391_
*438 _392_
*439 _393_
*440 _394_
*441 _395_
*442 _396_
*443 _397_
*444 _398_
*445 _399_
*446 _400_
*447 _401_
*448 _402_
*449 _403_
*450 _404_
*451 clknet_0_clk
*452 clknet_3_0__leaf_clk
*453 clknet_3_1__leaf_clk
*454 clknet_3_2__leaf_clk
*455 clknet_3_3__leaf_clk
*456 clknet_3_4__leaf_clk
*457 clknet_3_5__leaf_clk
*458 clknet_3_6__leaf_clk
*459 clknet_3_7__leaf_clk
*460 net1
*461 net10
*462 net11
*463 net12
*464 net13
*465 net14
*466 net15
*467 net16
*468 net17
*469 net18
*470 net19
*471 net2
*472 net20
*473 net21
*474 net22
*475 net3
*476 net39
*477 net4
*478 net40
*479 net41
*480 net42
*481 net43
*482 net44
*483 net45
*484 net46
*485 net47
*486 net48
*487 net49
*488 net5
*489 net50
*490 net51
*491 net52
*492 net53
*493 net54
*494 net55
*495 net56
*496 net57
*497 net58
*498 net59
*499 net6
*500 net60
*501 net61
*502 net62
*503 net7
*504 net8
*505 net9
*506 simple_nco\.freqControlWord\[0\]
*507 simple_nco\.freqControlWord\[10\]
*508 simple_nco\.freqControlWord\[11\]
*509 simple_nco\.freqControlWord\[12\]
*510 simple_nco\.freqControlWord\[13\]
*511 simple_nco\.freqControlWord\[14\]
*512 simple_nco\.freqControlWord\[15\]
*513 simple_nco\.freqControlWord\[1\]
*514 simple_nco\.freqControlWord\[2\]
*515 simple_nco\.freqControlWord\[3\]
*516 simple_nco\.freqControlWord\[4\]
*517 simple_nco\.freqControlWord\[5\]
*518 simple_nco\.freqControlWord\[6\]
*519 simple_nco\.freqControlWord\[7\]
*520 simple_nco\.freqControlWord\[8\]
*521 simple_nco\.freqControlWord\[9\]
*522 simple_nco\.phaseAccuTruncatedMsb
*523 simple_nco\.phaseAccuTruncated\[0\]
*524 simple_nco\.phaseAccuTruncated\[1\]
*525 simple_nco\.phaseAccuTruncated\[2\]
*526 simple_nco\.phaseAccuTruncated\[3\]
*527 simple_nco\.phaseAccuTruncated\[4\]
*528 simple_nco\.phaseAccuTruncated\[5\]
*529 simple_nco\.phaseAccuTruncated\[6\]
*530 simple_nco\.phaseAccuTruncated\[7\]
*531 simple_nco\.phaseAccuTruncated\[8\]
*532 simple_nco\.phaseAccuTruncated\[9\]
*533 simple_nco\.phaseAccumulator\[0\]
*534 simple_nco\.phaseAccumulator\[1\]
*535 simple_nco\.phaseAccumulator\[2\]
*536 simple_nco\.phaseAccumulator\[3\]
*537 simple_nco\.phaseAccumulator\[4\]
*538 simple_nco\.phaseAccumulator\[5\]
*539 simple_nco\.sineOut\[0\]
*540 simple_nco\.sineOut\[1\]
*541 simple_nco\.sineOut\[2\]
*542 simple_nco\.sineOut\[3\]
*543 simple_nco\.sineOut\[4\]
*544 simple_nco\.sineOut\[5\]
*545 simple_nco\.sineOut\[6\]
*546 simple_nco\.sineOut\[7\]
*547 simple_nco\.sineRomAddr\[0\]
*548 simple_nco\.sineRomAddr\[1\]
*549 simple_nco\.sineRomAddr\[2\]
*550 simple_nco\.sineRomAddr\[3\]
*551 simple_nco\.sineRomAddr\[4\]
*552 simple_nco\.sineRomAddr\[5\]
*553 simple_nco\.sineRomAddr\[6\]
*554 simple_nco\.sineRomAddr\[7\]
*555 simple_nco\.squareOut\[0\]
*556 simple_nco\.squareOut\[1\]
*557 simple_nco\.squareOut\[7\]
*558 FILLER_0_0_109
*559 FILLER_0_0_113
*560 FILLER_0_0_125
*561 FILLER_0_0_137
*562 FILLER_0_0_141
*563 FILLER_0_0_15
*564 FILLER_0_0_153
*565 FILLER_0_0_165
*566 FILLER_0_0_169
*567 FILLER_0_0_181
*568 FILLER_0_0_193
*569 FILLER_0_0_197
*570 FILLER_0_0_209
*571 FILLER_0_0_221
*572 FILLER_0_0_225
*573 FILLER_0_0_237
*574 FILLER_0_0_249
*575 FILLER_0_0_253
*576 FILLER_0_0_265
*577 FILLER_0_0_27
*578 FILLER_0_0_277
*579 FILLER_0_0_281
*580 FILLER_0_0_29
*581 FILLER_0_0_293
*582 FILLER_0_0_3
*583 FILLER_0_0_305
*584 FILLER_0_0_309
*585 FILLER_0_0_321
*586 FILLER_0_0_333
*587 FILLER_0_0_41
*588 FILLER_0_0_53
*589 FILLER_0_0_57
*590 FILLER_0_0_69
*591 FILLER_0_0_81
*592 FILLER_0_0_85
*593 FILLER_0_0_97
*594 FILLER_0_10_109
*595 FILLER_0_10_121
*596 FILLER_0_10_133
*597 FILLER_0_10_139
*598 FILLER_0_10_141
*599 FILLER_0_10_15
*600 FILLER_0_10_153
*601 FILLER_0_10_165
*602 FILLER_0_10_177
*603 FILLER_0_10_189
*604 FILLER_0_10_195
*605 FILLER_0_10_197
*606 FILLER_0_10_209
*607 FILLER_0_10_221
*608 FILLER_0_10_233
*609 FILLER_0_10_245
*610 FILLER_0_10_251
*611 FILLER_0_10_253
*612 FILLER_0_10_265
*613 FILLER_0_10_27
*614 FILLER_0_10_277
*615 FILLER_0_10_289
*616 FILLER_0_10_29
*617 FILLER_0_10_3
*618 FILLER_0_10_301
*619 FILLER_0_10_307
*620 FILLER_0_10_309
*621 FILLER_0_10_321
*622 FILLER_0_10_333
*623 FILLER_0_10_41
*624 FILLER_0_10_53
*625 FILLER_0_10_65
*626 FILLER_0_10_77
*627 FILLER_0_10_83
*628 FILLER_0_10_85
*629 FILLER_0_10_97
*630 FILLER_0_11_105
*631 FILLER_0_11_111
*632 FILLER_0_11_113
*633 FILLER_0_11_125
*634 FILLER_0_11_137
*635 FILLER_0_11_149
*636 FILLER_0_11_15
*637 FILLER_0_11_161
*638 FILLER_0_11_167
*639 FILLER_0_11_169
*640 FILLER_0_11_181
*641 FILLER_0_11_193
*642 FILLER_0_11_205
*643 FILLER_0_11_217
*644 FILLER_0_11_223
*645 FILLER_0_11_225
*646 FILLER_0_11_237
*647 FILLER_0_11_249
*648 FILLER_0_11_261
*649 FILLER_0_11_27
*650 FILLER_0_11_273
*651 FILLER_0_11_279
*652 FILLER_0_11_281
*653 FILLER_0_11_293
*654 FILLER_0_11_3
*655 FILLER_0_11_305
*656 FILLER_0_11_317
*657 FILLER_0_11_329
*658 FILLER_0_11_39
*659 FILLER_0_11_51
*660 FILLER_0_11_55
*661 FILLER_0_11_57
*662 FILLER_0_11_69
*663 FILLER_0_11_81
*664 FILLER_0_11_93
*665 FILLER_0_12_109
*666 FILLER_0_12_121
*667 FILLER_0_12_133
*668 FILLER_0_12_139
*669 FILLER_0_12_141
*670 FILLER_0_12_15
*671 FILLER_0_12_153
*672 FILLER_0_12_165
*673 FILLER_0_12_177
*674 FILLER_0_12_189
*675 FILLER_0_12_195
*676 FILLER_0_12_197
*677 FILLER_0_12_209
*678 FILLER_0_12_221
*679 FILLER_0_12_233
*680 FILLER_0_12_245
*681 FILLER_0_12_251
*682 FILLER_0_12_253
*683 FILLER_0_12_265
*684 FILLER_0_12_27
*685 FILLER_0_12_277
*686 FILLER_0_12_289
*687 FILLER_0_12_29
*688 FILLER_0_12_3
*689 FILLER_0_12_301
*690 FILLER_0_12_307
*691 FILLER_0_12_309
*692 FILLER_0_12_321
*693 FILLER_0_12_333
*694 FILLER_0_12_41
*695 FILLER_0_12_53
*696 FILLER_0_12_65
*697 FILLER_0_12_77
*698 FILLER_0_12_83
*699 FILLER_0_12_85
*700 FILLER_0_12_97
*701 FILLER_0_13_107
*702 FILLER_0_13_111
*703 FILLER_0_13_113
*704 FILLER_0_13_125
*705 FILLER_0_13_144
*706 FILLER_0_13_15
*707 FILLER_0_13_156
*708 FILLER_0_13_169
*709 FILLER_0_13_181
*710 FILLER_0_13_193
*711 FILLER_0_13_205
*712 FILLER_0_13_217
*713 FILLER_0_13_223
*714 FILLER_0_13_225
*715 FILLER_0_13_237
*716 FILLER_0_13_249
*717 FILLER_0_13_261
*718 FILLER_0_13_27
*719 FILLER_0_13_273
*720 FILLER_0_13_279
*721 FILLER_0_13_281
*722 FILLER_0_13_293
*723 FILLER_0_13_3
*724 FILLER_0_13_305
*725 FILLER_0_13_317
*726 FILLER_0_13_329
*727 FILLER_0_13_39
*728 FILLER_0_13_51
*729 FILLER_0_13_55
*730 FILLER_0_13_57
*731 FILLER_0_13_65
*732 FILLER_0_13_70
*733 FILLER_0_13_83
*734 FILLER_0_13_95
*735 FILLER_0_14_117
*736 FILLER_0_14_125
*737 FILLER_0_14_130
*738 FILLER_0_14_138
*739 FILLER_0_14_145
*740 FILLER_0_14_15
*741 FILLER_0_14_151
*742 FILLER_0_14_160
*743 FILLER_0_14_172
*744 FILLER_0_14_184
*745 FILLER_0_14_197
*746 FILLER_0_14_209
*747 FILLER_0_14_221
*748 FILLER_0_14_233
*749 FILLER_0_14_245
*750 FILLER_0_14_251
*751 FILLER_0_14_253
*752 FILLER_0_14_265
*753 FILLER_0_14_27
*754 FILLER_0_14_277
*755 FILLER_0_14_289
*756 FILLER_0_14_29
*757 FILLER_0_14_3
*758 FILLER_0_14_301
*759 FILLER_0_14_307
*760 FILLER_0_14_309
*761 FILLER_0_14_321
*762 FILLER_0_14_333
*763 FILLER_0_14_35
*764 FILLER_0_14_48
*765 FILLER_0_14_60
*766 FILLER_0_14_83
*767 FILLER_0_14_93
*768 FILLER_0_15_111
*769 FILLER_0_15_122
*770 FILLER_0_15_130
*771 FILLER_0_15_134
*772 FILLER_0_15_15
*773 FILLER_0_15_158
*774 FILLER_0_15_166
*775 FILLER_0_15_169
*776 FILLER_0_15_173
*777 FILLER_0_15_178
*778 FILLER_0_15_185
*779 FILLER_0_15_197
*780 FILLER_0_15_209
*781 FILLER_0_15_21
*782 FILLER_0_15_221
*783 FILLER_0_15_225
*784 FILLER_0_15_237
*785 FILLER_0_15_249
*786 FILLER_0_15_261
*787 FILLER_0_15_273
*788 FILLER_0_15_279
*789 FILLER_0_15_281
*790 FILLER_0_15_293
*791 FILLER_0_15_3
*792 FILLER_0_15_305
*793 FILLER_0_15_317
*794 FILLER_0_15_329
*795 FILLER_0_15_55
*796 FILLER_0_15_57
*797 FILLER_0_15_90
*798 FILLER_0_15_96
*799 FILLER_0_16_126
*800 FILLER_0_16_139
*801 FILLER_0_16_15
*802 FILLER_0_16_167
*803 FILLER_0_16_191
*804 FILLER_0_16_195
*805 FILLER_0_16_197
*806 FILLER_0_16_209
*807 FILLER_0_16_221
*808 FILLER_0_16_233
*809 FILLER_0_16_245
*810 FILLER_0_16_251
*811 FILLER_0_16_253
*812 FILLER_0_16_265
*813 FILLER_0_16_27
*814 FILLER_0_16_277
*815 FILLER_0_16_289
*816 FILLER_0_16_3
*817 FILLER_0_16_301
*818 FILLER_0_16_307
*819 FILLER_0_16_309
*820 FILLER_0_16_321
*821 FILLER_0_16_333
*822 FILLER_0_16_53
*823 FILLER_0_16_68
*824 FILLER_0_16_75
*825 FILLER_0_16_83
*826 FILLER_0_16_85
*827 FILLER_0_17_110
*828 FILLER_0_17_113
*829 FILLER_0_17_123
*830 FILLER_0_17_135
*831 FILLER_0_17_147
*832 FILLER_0_17_15
*833 FILLER_0_17_154
*834 FILLER_0_17_158
*835 FILLER_0_17_169
*836 FILLER_0_17_181
*837 FILLER_0_17_193
*838 FILLER_0_17_205
*839 FILLER_0_17_217
*840 FILLER_0_17_223
*841 FILLER_0_17_225
*842 FILLER_0_17_23
*843 FILLER_0_17_237
*844 FILLER_0_17_249
*845 FILLER_0_17_261
*846 FILLER_0_17_273
*847 FILLER_0_17_279
*848 FILLER_0_17_281
*849 FILLER_0_17_293
*850 FILLER_0_17_3
*851 FILLER_0_17_305
*852 FILLER_0_17_317
*853 FILLER_0_17_329
*854 FILLER_0_17_42
*855 FILLER_0_17_51
*856 FILLER_0_17_55
*857 FILLER_0_17_57
*858 FILLER_0_17_69
*859 FILLER_0_17_7
*860 FILLER_0_17_77
*861 FILLER_0_17_83
*862 FILLER_0_17_98
*863 FILLER_0_18_109
*864 FILLER_0_18_119
*865 FILLER_0_18_132
*866 FILLER_0_18_141
*867 FILLER_0_18_15
*868 FILLER_0_18_151
*869 FILLER_0_18_155
*870 FILLER_0_18_168
*871 FILLER_0_18_203
*872 FILLER_0_18_215
*873 FILLER_0_18_227
*874 FILLER_0_18_239
*875 FILLER_0_18_251
*876 FILLER_0_18_253
*877 FILLER_0_18_265
*878 FILLER_0_18_277
*879 FILLER_0_18_289
*880 FILLER_0_18_3
*881 FILLER_0_18_301
*882 FILLER_0_18_307
*883 FILLER_0_18_309
*884 FILLER_0_18_321
*885 FILLER_0_18_333
*886 FILLER_0_18_48
*887 FILLER_0_18_60
*888 FILLER_0_18_64
*889 FILLER_0_18_77
*890 FILLER_0_18_83
*891 FILLER_0_18_85
*892 FILLER_0_18_97
*893 FILLER_0_19_102
*894 FILLER_0_19_133
*895 FILLER_0_19_148
*896 FILLER_0_19_15
*897 FILLER_0_19_169
*898 FILLER_0_19_175
*899 FILLER_0_19_219
*900 FILLER_0_19_223
*901 FILLER_0_19_225
*902 FILLER_0_19_237
*903 FILLER_0_19_24
*904 FILLER_0_19_263
*905 FILLER_0_19_275
*906 FILLER_0_19_279
*907 FILLER_0_19_28
*908 FILLER_0_19_281
*909 FILLER_0_19_293
*910 FILLER_0_19_3
*911 FILLER_0_19_305
*912 FILLER_0_19_317
*913 FILLER_0_19_329
*914 FILLER_0_19_55
*915 FILLER_0_19_64
*916 FILLER_0_19_84
*917 FILLER_0_19_88
*918 FILLER_0_1_105
*919 FILLER_0_1_111
*920 FILLER_0_1_113
*921 FILLER_0_1_125
*922 FILLER_0_1_137
*923 FILLER_0_1_149
*924 FILLER_0_1_15
*925 FILLER_0_1_161
*926 FILLER_0_1_167
*927 FILLER_0_1_169
*928 FILLER_0_1_181
*929 FILLER_0_1_193
*930 FILLER_0_1_205
*931 FILLER_0_1_217
*932 FILLER_0_1_223
*933 FILLER_0_1_225
*934 FILLER_0_1_237
*935 FILLER_0_1_249
*936 FILLER_0_1_261
*937 FILLER_0_1_27
*938 FILLER_0_1_273
*939 FILLER_0_1_279
*940 FILLER_0_1_281
*941 FILLER_0_1_293
*942 FILLER_0_1_3
*943 FILLER_0_1_305
*944 FILLER_0_1_317
*945 FILLER_0_1_329
*946 FILLER_0_1_39
*947 FILLER_0_1_51
*948 FILLER_0_1_55
*949 FILLER_0_1_57
*950 FILLER_0_1_69
*951 FILLER_0_1_81
*952 FILLER_0_1_93
*953 FILLER_0_20_114
*954 FILLER_0_20_137
*955 FILLER_0_20_141
*956 FILLER_0_20_147
*957 FILLER_0_20_15
*958 FILLER_0_20_153
*959 FILLER_0_20_165
*960 FILLER_0_20_186
*961 FILLER_0_20_19
*962 FILLER_0_20_194
*963 FILLER_0_20_197
*964 FILLER_0_20_205
*965 FILLER_0_20_238
*966 FILLER_0_20_250
*967 FILLER_0_20_257
*968 FILLER_0_20_281
*969 FILLER_0_20_29
*970 FILLER_0_20_293
*971 FILLER_0_20_3
*972 FILLER_0_20_305
*973 FILLER_0_20_309
*974 FILLER_0_20_321
*975 FILLER_0_20_333
*976 FILLER_0_20_41
*977 FILLER_0_20_49
*978 FILLER_0_20_74
*979 FILLER_0_20_83
*980 FILLER_0_20_85
*981 FILLER_0_20_93
*982 FILLER_0_21_110
*983 FILLER_0_21_116
*984 FILLER_0_21_122
*985 FILLER_0_21_134
*986 FILLER_0_21_142
*987 FILLER_0_21_15
*988 FILLER_0_21_150
*989 FILLER_0_21_162
*990 FILLER_0_21_169
*991 FILLER_0_21_173
*992 FILLER_0_21_194
*993 FILLER_0_21_206
*994 FILLER_0_21_218
*995 FILLER_0_21_236
*996 FILLER_0_21_242
*997 FILLER_0_21_27
*998 FILLER_0_21_271
*999 FILLER_0_21_279
*1000 FILLER_0_21_281
*1001 FILLER_0_21_3
*1002 FILLER_0_21_304
*1003 FILLER_0_21_317
*1004 FILLER_0_21_329
*1005 FILLER_0_21_46
*1006 FILLER_0_21_54
*1007 FILLER_0_21_57
*1008 FILLER_0_21_63
*1009 FILLER_0_21_76
*1010 FILLER_0_21_84
*1011 FILLER_0_21_96
*1012 FILLER_0_22_121
*1013 FILLER_0_22_133
*1014 FILLER_0_22_139
*1015 FILLER_0_22_15
*1016 FILLER_0_22_161
*1017 FILLER_0_22_173
*1018 FILLER_0_22_185
*1019 FILLER_0_22_193
*1020 FILLER_0_22_197
*1021 FILLER_0_22_250
*1022 FILLER_0_22_27
*1023 FILLER_0_22_278
*1024 FILLER_0_22_282
*1025 FILLER_0_22_3
*1026 FILLER_0_22_307
*1027 FILLER_0_22_329
*1028 FILLER_0_22_44
*1029 FILLER_0_22_52
*1030 FILLER_0_22_64
*1031 FILLER_0_22_68
*1032 FILLER_0_22_80
*1033 FILLER_0_22_85
*1034 FILLER_0_22_97
*1035 FILLER_0_23_100
*1036 FILLER_0_23_109
*1037 FILLER_0_23_113
*1038 FILLER_0_23_125
*1039 FILLER_0_23_147
*1040 FILLER_0_23_15
*1041 FILLER_0_23_159
*1042 FILLER_0_23_169
*1043 FILLER_0_23_186
*1044 FILLER_0_23_198
*1045 FILLER_0_23_210
*1046 FILLER_0_23_222
*1047 FILLER_0_23_225
*1048 FILLER_0_23_241
*1049 FILLER_0_23_245
*1050 FILLER_0_23_268
*1051 FILLER_0_23_281
*1052 FILLER_0_23_287
*1053 FILLER_0_23_296
*1054 FILLER_0_23_3
*1055 FILLER_0_23_30
*1056 FILLER_0_23_306
*1057 FILLER_0_23_44
*1058 FILLER_0_23_53
*1059 FILLER_0_23_57
*1060 FILLER_0_23_65
*1061 FILLER_0_23_75
*1062 FILLER_0_23_79
*1063 FILLER_0_24_108
*1064 FILLER_0_24_116
*1065 FILLER_0_24_15
*1066 FILLER_0_24_157
*1067 FILLER_0_24_169
*1068 FILLER_0_24_181
*1069 FILLER_0_24_193
*1070 FILLER_0_24_197
*1071 FILLER_0_24_205
*1072 FILLER_0_24_213
*1073 FILLER_0_24_23
*1074 FILLER_0_24_240
*1075 FILLER_0_24_253
*1076 FILLER_0_24_265
*1077 FILLER_0_24_29
*1078 FILLER_0_24_291
*1079 FILLER_0_24_295
*1080 FILLER_0_24_299
*1081 FILLER_0_24_3
*1082 FILLER_0_24_307
*1083 FILLER_0_24_317
*1084 FILLER_0_24_331
*1085 FILLER_0_24_43
*1086 FILLER_0_24_55
*1087 FILLER_0_24_70
*1088 FILLER_0_24_82
*1089 FILLER_0_25_113
*1090 FILLER_0_25_125
*1091 FILLER_0_25_137
*1092 FILLER_0_25_15
*1093 FILLER_0_25_161
*1094 FILLER_0_25_167
*1095 FILLER_0_25_173
*1096 FILLER_0_25_213
*1097 FILLER_0_25_219
*1098 FILLER_0_25_223
*1099 FILLER_0_25_236
*1100 FILLER_0_25_242
*1101 FILLER_0_25_266
*1102 FILLER_0_25_27
*1103 FILLER_0_25_278
*1104 FILLER_0_25_3
*1105 FILLER_0_25_301
*1106 FILLER_0_25_325
*1107 FILLER_0_25_334
*1108 FILLER_0_25_34
*1109 FILLER_0_25_54
*1110 FILLER_0_25_57
*1111 FILLER_0_25_69
*1112 FILLER_0_25_81
*1113 FILLER_0_25_89
*1114 FILLER_0_26_108
*1115 FILLER_0_26_112
*1116 FILLER_0_26_122
*1117 FILLER_0_26_134
*1118 FILLER_0_26_15
*1119 FILLER_0_26_153
*1120 FILLER_0_26_175
*1121 FILLER_0_26_187
*1122 FILLER_0_26_236
*1123 FILLER_0_26_244
*1124 FILLER_0_26_250
*1125 FILLER_0_26_27
*1126 FILLER_0_26_273
*1127 FILLER_0_26_286
*1128 FILLER_0_26_29
*1129 FILLER_0_26_3
*1130 FILLER_0_26_304
*1131 FILLER_0_26_41
*1132 FILLER_0_26_53
*1133 FILLER_0_26_65
*1134 FILLER_0_26_78
*1135 FILLER_0_26_85
*1136 FILLER_0_26_97
*1137 FILLER_0_27_106
*1138 FILLER_0_27_133
*1139 FILLER_0_27_145
*1140 FILLER_0_27_15
*1141 FILLER_0_27_163
*1142 FILLER_0_27_167
*1143 FILLER_0_27_169
*1144 FILLER_0_27_218
*1145 FILLER_0_27_225
*1146 FILLER_0_27_237
*1147 FILLER_0_27_267
*1148 FILLER_0_27_27
*1149 FILLER_0_27_279
*1150 FILLER_0_27_281
*1151 FILLER_0_27_293
*1152 FILLER_0_27_3
*1153 FILLER_0_27_332
*1154 FILLER_0_27_39
*1155 FILLER_0_27_47
*1156 FILLER_0_27_53
*1157 FILLER_0_27_57
*1158 FILLER_0_27_79
*1159 FILLER_0_27_83
*1160 FILLER_0_27_94
*1161 FILLER_0_28_115
*1162 FILLER_0_28_136
*1163 FILLER_0_28_141
*1164 FILLER_0_28_149
*1165 FILLER_0_28_15
*1166 FILLER_0_28_160
*1167 FILLER_0_28_172
*1168 FILLER_0_28_184
*1169 FILLER_0_28_222
*1170 FILLER_0_28_234
*1171 FILLER_0_28_246
*1172 FILLER_0_28_253
*1173 FILLER_0_28_266
*1174 FILLER_0_28_27
*1175 FILLER_0_28_270
*1176 FILLER_0_28_29
*1177 FILLER_0_28_291
*1178 FILLER_0_28_299
*1179 FILLER_0_28_3
*1180 FILLER_0_28_305
*1181 FILLER_0_28_309
*1182 FILLER_0_28_333
*1183 FILLER_0_28_60
*1184 FILLER_0_28_66
*1185 FILLER_0_28_71
*1186 FILLER_0_28_75
*1187 FILLER_0_28_79
*1188 FILLER_0_28_83
*1189 FILLER_0_28_94
*1190 FILLER_0_29_116
*1191 FILLER_0_29_127
*1192 FILLER_0_29_143
*1193 FILLER_0_29_15
*1194 FILLER_0_29_165
*1195 FILLER_0_29_192
*1196 FILLER_0_29_198
*1197 FILLER_0_29_223
*1198 FILLER_0_29_230
*1199 FILLER_0_29_250
*1200 FILLER_0_29_27
*1201 FILLER_0_29_271
*1202 FILLER_0_29_275
*1203 FILLER_0_29_279
*1204 FILLER_0_29_290
*1205 FILLER_0_29_3
*1206 FILLER_0_29_322
*1207 FILLER_0_29_334
*1208 FILLER_0_29_39
*1209 FILLER_0_29_54
*1210 FILLER_0_29_60
*1211 FILLER_0_2_109
*1212 FILLER_0_2_121
*1213 FILLER_0_2_133
*1214 FILLER_0_2_139
*1215 FILLER_0_2_141
*1216 FILLER_0_2_15
*1217 FILLER_0_2_153
*1218 FILLER_0_2_165
*1219 FILLER_0_2_177
*1220 FILLER_0_2_189
*1221 FILLER_0_2_195
*1222 FILLER_0_2_197
*1223 FILLER_0_2_209
*1224 FILLER_0_2_221
*1225 FILLER_0_2_233
*1226 FILLER_0_2_245
*1227 FILLER_0_2_251
*1228 FILLER_0_2_253
*1229 FILLER_0_2_265
*1230 FILLER_0_2_27
*1231 FILLER_0_2_277
*1232 FILLER_0_2_289
*1233 FILLER_0_2_29
*1234 FILLER_0_2_3
*1235 FILLER_0_2_301
*1236 FILLER_0_2_307
*1237 FILLER_0_2_309
*1238 FILLER_0_2_321
*1239 FILLER_0_2_333
*1240 FILLER_0_2_41
*1241 FILLER_0_2_53
*1242 FILLER_0_2_65
*1243 FILLER_0_2_77
*1244 FILLER_0_2_83
*1245 FILLER_0_2_85
*1246 FILLER_0_2_97
*1247 FILLER_0_30_102
*1248 FILLER_0_30_149
*1249 FILLER_0_30_15
*1250 FILLER_0_30_155
*1251 FILLER_0_30_177
*1252 FILLER_0_30_189
*1253 FILLER_0_30_195
*1254 FILLER_0_30_197
*1255 FILLER_0_30_210
*1256 FILLER_0_30_236
*1257 FILLER_0_30_244
*1258 FILLER_0_30_267
*1259 FILLER_0_30_27
*1260 FILLER_0_30_279
*1261 FILLER_0_30_29
*1262 FILLER_0_30_291
*1263 FILLER_0_30_3
*1264 FILLER_0_30_303
*1265 FILLER_0_30_307
*1266 FILLER_0_30_309
*1267 FILLER_0_30_317
*1268 FILLER_0_30_322
*1269 FILLER_0_30_334
*1270 FILLER_0_30_55
*1271 FILLER_0_30_67
*1272 FILLER_0_30_71
*1273 FILLER_0_30_85
*1274 FILLER_0_31_101
*1275 FILLER_0_31_109
*1276 FILLER_0_31_116
*1277 FILLER_0_31_122
*1278 FILLER_0_31_146
*1279 FILLER_0_31_15
*1280 FILLER_0_31_159
*1281 FILLER_0_31_167
*1282 FILLER_0_31_177
*1283 FILLER_0_31_185
*1284 FILLER_0_31_219
*1285 FILLER_0_31_223
*1286 FILLER_0_31_267
*1287 FILLER_0_31_27
*1288 FILLER_0_31_3
*1289 FILLER_0_31_301
*1290 FILLER_0_31_305
*1291 FILLER_0_31_331
*1292 FILLER_0_31_39
*1293 FILLER_0_31_51
*1294 FILLER_0_31_55
*1295 FILLER_0_31_57
*1296 FILLER_0_31_63
*1297 FILLER_0_32_101
*1298 FILLER_0_32_105
*1299 FILLER_0_32_135
*1300 FILLER_0_32_139
*1301 FILLER_0_32_149
*1302 FILLER_0_32_15
*1303 FILLER_0_32_155
*1304 FILLER_0_32_184
*1305 FILLER_0_32_197
*1306 FILLER_0_32_203
*1307 FILLER_0_32_240
*1308 FILLER_0_32_27
*1309 FILLER_0_32_29
*1310 FILLER_0_32_3
*1311 FILLER_0_32_333
*1312 FILLER_0_32_41
*1313 FILLER_0_32_53
*1314 FILLER_0_32_82
*1315 FILLER_0_32_85
*1316 FILLER_0_33_133
*1317 FILLER_0_33_139
*1318 FILLER_0_33_15
*1319 FILLER_0_33_154
*1320 FILLER_0_33_166
*1321 FILLER_0_33_189
*1322 FILLER_0_33_194
*1323 FILLER_0_33_202
*1324 FILLER_0_33_208
*1325 FILLER_0_33_234
*1326 FILLER_0_33_242
*1327 FILLER_0_33_27
*1328 FILLER_0_33_276
*1329 FILLER_0_33_284
*1330 FILLER_0_33_297
*1331 FILLER_0_33_3
*1332 FILLER_0_33_309
*1333 FILLER_0_33_313
*1334 FILLER_0_33_324
*1335 FILLER_0_33_330
*1336 FILLER_0_33_334
*1337 FILLER_0_33_39
*1338 FILLER_0_33_51
*1339 FILLER_0_33_55
*1340 FILLER_0_33_57
*1341 FILLER_0_34_105
*1342 FILLER_0_34_15
*1343 FILLER_0_34_154
*1344 FILLER_0_34_182
*1345 FILLER_0_34_192
*1346 FILLER_0_34_202
*1347 FILLER_0_34_213
*1348 FILLER_0_34_217
*1349 FILLER_0_34_221
*1350 FILLER_0_34_235
*1351 FILLER_0_34_247
*1352 FILLER_0_34_251
*1353 FILLER_0_34_27
*1354 FILLER_0_34_273
*1355 FILLER_0_34_285
*1356 FILLER_0_34_29
*1357 FILLER_0_34_297
*1358 FILLER_0_34_3
*1359 FILLER_0_34_322
*1360 FILLER_0_34_333
*1361 FILLER_0_34_41
*1362 FILLER_0_34_53
*1363 FILLER_0_34_65
*1364 FILLER_0_34_76
*1365 FILLER_0_34_93
*1366 FILLER_0_35_102
*1367 FILLER_0_35_127
*1368 FILLER_0_35_131
*1369 FILLER_0_35_15
*1370 FILLER_0_35_155
*1371 FILLER_0_35_163
*1372 FILLER_0_35_167
*1373 FILLER_0_35_169
*1374 FILLER_0_35_196
*1375 FILLER_0_35_213
*1376 FILLER_0_35_221
*1377 FILLER_0_35_225
*1378 FILLER_0_35_246
*1379 FILLER_0_35_256
*1380 FILLER_0_35_263
*1381 FILLER_0_35_267
*1382 FILLER_0_35_27
*1383 FILLER_0_35_278
*1384 FILLER_0_35_281
*1385 FILLER_0_35_293
*1386 FILLER_0_35_3
*1387 FILLER_0_35_331
*1388 FILLER_0_35_39
*1389 FILLER_0_35_51
*1390 FILLER_0_35_55
*1391 FILLER_0_35_57
*1392 FILLER_0_35_69
*1393 FILLER_0_35_73
*1394 FILLER_0_35_94
*1395 FILLER_0_36_109
*1396 FILLER_0_36_133
*1397 FILLER_0_36_15
*1398 FILLER_0_36_164
*1399 FILLER_0_36_168
*1400 FILLER_0_36_257
*1401 FILLER_0_36_27
*1402 FILLER_0_36_29
*1403 FILLER_0_36_3
*1404 FILLER_0_36_332
*1405 FILLER_0_36_41
*1406 FILLER_0_36_53
*1407 FILLER_0_36_65
*1408 FILLER_0_36_77
*1409 FILLER_0_36_83
*1410 FILLER_0_36_85
*1411 FILLER_0_36_97
*1412 FILLER_0_37_105
*1413 FILLER_0_37_111
*1414 FILLER_0_37_113
*1415 FILLER_0_37_142
*1416 FILLER_0_37_15
*1417 FILLER_0_37_169
*1418 FILLER_0_37_178
*1419 FILLER_0_37_202
*1420 FILLER_0_37_209
*1421 FILLER_0_37_221
*1422 FILLER_0_37_228
*1423 FILLER_0_37_260
*1424 FILLER_0_37_266
*1425 FILLER_0_37_27
*1426 FILLER_0_37_270
*1427 FILLER_0_37_3
*1428 FILLER_0_37_302
*1429 FILLER_0_37_39
*1430 FILLER_0_37_51
*1431 FILLER_0_37_55
*1432 FILLER_0_37_57
*1433 FILLER_0_37_69
*1434 FILLER_0_37_81
*1435 FILLER_0_37_93
*1436 FILLER_0_38_10
*1437 FILLER_0_38_102
*1438 FILLER_0_38_106
*1439 FILLER_0_38_110
*1440 FILLER_0_38_113
*1441 FILLER_0_38_118
*1442 FILLER_0_38_122
*1443 FILLER_0_38_126
*1444 FILLER_0_38_138
*1445 FILLER_0_38_14
*1446 FILLER_0_38_147
*1447 FILLER_0_38_159
*1448 FILLER_0_38_167
*1449 FILLER_0_38_169
*1450 FILLER_0_38_18
*1451 FILLER_0_38_181
*1452 FILLER_0_38_193
*1453 FILLER_0_38_197
*1454 FILLER_0_38_209
*1455 FILLER_0_38_22
*1456 FILLER_0_38_221
*1457 FILLER_0_38_225
*1458 FILLER_0_38_231
*1459 FILLER_0_38_239
*1460 FILLER_0_38_256
*1461 FILLER_0_38_262
*1462 FILLER_0_38_266
*1463 FILLER_0_38_270
*1464 FILLER_0_38_302
*1465 FILLER_0_38_307
*1466 FILLER_0_38_32
*1467 FILLER_0_38_328
*1468 FILLER_0_38_38
*1469 FILLER_0_38_42
*1470 FILLER_0_38_46
*1471 FILLER_0_38_50
*1472 FILLER_0_38_54
*1473 FILLER_0_38_57
*1474 FILLER_0_38_6
*1475 FILLER_0_38_62
*1476 FILLER_0_38_66
*1477 FILLER_0_38_70
*1478 FILLER_0_38_74
*1479 FILLER_0_38_78
*1480 FILLER_0_38_88
*1481 FILLER_0_38_94
*1482 FILLER_0_38_98
*1483 FILLER_0_3_105
*1484 FILLER_0_3_111
*1485 FILLER_0_3_113
*1486 FILLER_0_3_125
*1487 FILLER_0_3_137
*1488 FILLER_0_3_149
*1489 FILLER_0_3_15
*1490 FILLER_0_3_161
*1491 FILLER_0_3_167
*1492 FILLER_0_3_169
*1493 FILLER_0_3_181
*1494 FILLER_0_3_193
*1495 FILLER_0_3_205
*1496 FILLER_0_3_217
*1497 FILLER_0_3_223
*1498 FILLER_0_3_225
*1499 FILLER_0_3_237
*1500 FILLER_0_3_249
*1501 FILLER_0_3_261
*1502 FILLER_0_3_27
*1503 FILLER_0_3_273
*1504 FILLER_0_3_279
*1505 FILLER_0_3_281
*1506 FILLER_0_3_293
*1507 FILLER_0_3_3
*1508 FILLER_0_3_305
*1509 FILLER_0_3_317
*1510 FILLER_0_3_329
*1511 FILLER_0_3_39
*1512 FILLER_0_3_51
*1513 FILLER_0_3_55
*1514 FILLER_0_3_57
*1515 FILLER_0_3_69
*1516 FILLER_0_3_81
*1517 FILLER_0_3_93
*1518 FILLER_0_4_109
*1519 FILLER_0_4_121
*1520 FILLER_0_4_133
*1521 FILLER_0_4_139
*1522 FILLER_0_4_141
*1523 FILLER_0_4_15
*1524 FILLER_0_4_153
*1525 FILLER_0_4_165
*1526 FILLER_0_4_177
*1527 FILLER_0_4_189
*1528 FILLER_0_4_195
*1529 FILLER_0_4_197
*1530 FILLER_0_4_209
*1531 FILLER_0_4_221
*1532 FILLER_0_4_233
*1533 FILLER_0_4_245
*1534 FILLER_0_4_251
*1535 FILLER_0_4_253
*1536 FILLER_0_4_265
*1537 FILLER_0_4_27
*1538 FILLER_0_4_277
*1539 FILLER_0_4_289
*1540 FILLER_0_4_29
*1541 FILLER_0_4_3
*1542 FILLER_0_4_301
*1543 FILLER_0_4_307
*1544 FILLER_0_4_309
*1545 FILLER_0_4_321
*1546 FILLER_0_4_333
*1547 FILLER_0_4_41
*1548 FILLER_0_4_53
*1549 FILLER_0_4_65
*1550 FILLER_0_4_77
*1551 FILLER_0_4_83
*1552 FILLER_0_4_85
*1553 FILLER_0_4_97
*1554 FILLER_0_5_105
*1555 FILLER_0_5_111
*1556 FILLER_0_5_113
*1557 FILLER_0_5_125
*1558 FILLER_0_5_137
*1559 FILLER_0_5_149
*1560 FILLER_0_5_15
*1561 FILLER_0_5_161
*1562 FILLER_0_5_167
*1563 FILLER_0_5_169
*1564 FILLER_0_5_181
*1565 FILLER_0_5_193
*1566 FILLER_0_5_205
*1567 FILLER_0_5_217
*1568 FILLER_0_5_223
*1569 FILLER_0_5_225
*1570 FILLER_0_5_237
*1571 FILLER_0_5_249
*1572 FILLER_0_5_261
*1573 FILLER_0_5_27
*1574 FILLER_0_5_273
*1575 FILLER_0_5_279
*1576 FILLER_0_5_281
*1577 FILLER_0_5_293
*1578 FILLER_0_5_3
*1579 FILLER_0_5_305
*1580 FILLER_0_5_317
*1581 FILLER_0_5_329
*1582 FILLER_0_5_39
*1583 FILLER_0_5_51
*1584 FILLER_0_5_55
*1585 FILLER_0_5_57
*1586 FILLER_0_5_69
*1587 FILLER_0_5_81
*1588 FILLER_0_5_93
*1589 FILLER_0_6_109
*1590 FILLER_0_6_121
*1591 FILLER_0_6_133
*1592 FILLER_0_6_139
*1593 FILLER_0_6_141
*1594 FILLER_0_6_15
*1595 FILLER_0_6_153
*1596 FILLER_0_6_165
*1597 FILLER_0_6_177
*1598 FILLER_0_6_189
*1599 FILLER_0_6_195
*1600 FILLER_0_6_197
*1601 FILLER_0_6_209
*1602 FILLER_0_6_221
*1603 FILLER_0_6_233
*1604 FILLER_0_6_245
*1605 FILLER_0_6_251
*1606 FILLER_0_6_253
*1607 FILLER_0_6_265
*1608 FILLER_0_6_27
*1609 FILLER_0_6_277