*SPEF "ieee 1481-1999"
*DESIGN "tt_um_s1pu11i_simple_nco"
*DATE "08:07:10 Friday April 19, 2024"
*VENDOR "The OpenROAD Project"
*PROGRAM "OpenROAD"
*VERSION "0889970d1790a2617e69f253221b8bd7626e51dc"
*DESIGN_FLOW "NAME_SCOPE LOCAL" "PIN_CAP NONE"
*DIVIDER /
*DELIMITER :
*BUS_DELIMITER []
*T_UNIT 1 NS
*C_UNIT 1 PF
*R_UNIT 1 OHM
*L_UNIT 1 HENRY

*NAME_MAP
*3 clk
*4 ena
*5 rst_n
*6 ui_in[0]
*7 ui_in[1]
*8 ui_in[2]
*9 ui_in[3]
*10 ui_in[4]
*11 ui_in[5]
*12 ui_in[6]
*13 ui_in[7]
*14 uio_in[0]
*15 uio_in[1]
*16 uio_in[2]
*17 uio_in[3]
*18 uio_in[4]
*19 uio_in[5]
*20 uio_in[6]
*21 uio_in[7]
*22 net23
*23 net24
*24 net25
*25 net26
*26 net27
*27 net28
*28 net29
*29 net30
*30 net31
*31 net32
*32 net33
*33 net34
*34 net35
*35 net36
*36 net37
*37 net38
*38 uo_out[0]
*39 uo_out[1]
*40 uo_out[2]
*41 uo_out[3]
*42 uo_out[4]
*43 uo_out[5]
*44 uo_out[6]
*45 uo_out[7]
*46 _000_
*47 _001_
*48 _002_
*49 _003_
*50 _004_
*51 _005_
*52 _006_
*53 _007_
*54 _008_
*55 _009_
*56 _010_
*57 _011_
*58 _012_
*59 _013_
*60 _014_
*61 _015_
*62 _016_
*63 _017_
*64 _018_
*65 _019_
*66 _020_
*67 _021_
*68 _022_
*69 _023_
*70 _024_
*71 _025_
*72 _026_
*73 _027_
*74 _028_
*75 _029_
*76 _030_
*77 _031_
*78 _032_
*79 _033_
*80 _034_
*81 _035_
*82 _036_
*83 _037_
*84 _038_
*85 _039_
*86 _040_
*87 _041_
*88 _042_
*89 _043_
*90 _044_
*91 _045_
*92 _046_
*93 _047_
*94 _048_
*95 _049_
*96 _050_
*97 _051_
*98 _052_
*99 _053_
*100 _054_
*101 _055_
*102 _056_
*103 _057_
*104 _058_
*105 _059_
*106 _060_
*107 _061_
*108 _062_
*109 _063_
*110 _064_
*111 _065_
*112 _066_
*113 _067_
*114 _068_
*115 _069_
*116 _070_
*117 _071_
*118 _072_
*119 _073_
*120 _074_
*121 _075_
*122 _076_
*123 _077_
*124 _078_
*125 _079_
*126 _080_
*127 _081_
*128 _082_
*129 _083_
*130 _084_
*131 _085_
*132 _086_
*133 _087_
*134 _088_
*135 _089_
*136 _090_
*137 _091_
*138 _092_
*139 _093_
*140 _094_
*141 _095_
*142 _096_
*143 _097_
*144 _098_
*145 _099_
*146 _100_
*147 _101_
*148 _102_
*149 _103_
*150 _104_
*151 _105_
*152 _106_
*153 _107_
*154 _108_
*155 _109_
*156 _110_
*157 _111_
*158 _112_
*159 _113_
*160 _114_
*161 _115_
*162 _116_
*163 _117_
*164 _118_
*165 _119_
*166 _120_
*167 _121_
*168 _122_
*169 _123_
*170 _124_
*171 _125_
*172 _126_
*173 _127_
*174 _128_
*175 _129_
*176 _130_
*177 _131_
*178 _132_
*179 _133_
*180 _134_
*181 _135_
*182 _136_
*183 _137_
*184 _138_
*185 _139_
*186 _140_
*187 _141_
*188 _142_
*189 _143_
*190 _144_
*191 _145_
*192 _146_
*193 _147_
*194 _148_
*195 _149_
*196 _150_
*197 _151_
*198 _152_
*199 _153_
*200 _154_
*201 _155_
*202 _156_
*203 _157_
*204 _158_
*205 _159_
*206 _160_
*207 _161_
*208 _162_
*209 _163_
*210 _164_
*211 _165_
*212 _166_
*213 _167_
*214 _168_
*215 _169_
*216 _170_
*217 _171_
*218 _172_
*219 _173_
*220 _174_
*221 _175_
*222 _176_
*223 _177_
*224 _178_
*225 _179_
*226 _180_
*227 _181_
*228 _182_
*229 _183_
*230 _184_
*231 _185_
*232 _186_
*233 _187_
*234 _188_
*235 _189_
*236 _190_
*237 _191_
*238 _192_
*239 _193_
*240 _194_
*241 _195_
*242 _196_
*243 _197_
*244 _198_
*245 _199_
*246 _200_
*247 _201_
*248 _202_
*249 _203_
*250 _204_
*251 _205_
*252 _206_
*253 _207_
*254 _208_
*255 _209_
*256 _210_
*257 _211_
*258 _212_
*259 _213_
*260 _214_
*261 _215_
*262 _216_
*263 _217_
*264 _218_
*265 _219_
*266 _220_
*267 _221_
*268 _222_
*269 _223_
*270 _224_
*271 _225_
*272 _226_
*273 _227_
*274 _228_
*275 _229_
*276 _230_
*277 _231_
*278 _232_
*279 _233_
*280 _234_
*281 _235_
*282 _236_
*283 _237_
*284 _238_
*285 _239_
*286 _240_
*287 _241_
*288 _242_
*289 _243_
*290 _244_
*291 _245_
*292 _246_
*293 _247_
*294 _248_
*295 _249_
*296 _250_
*297 _251_
*298 _252_
*299 _253_
*300 _254_
*301 _255_
*302 _256_
*303 _257_
*304 _258_
*305 _259_
*306 _260_
*307 _261_
*308 _262_
*309 _263_
*310 _264_
*311 _265_
*312 _266_
*313 _267_
*314 _268_
*315 _269_
*316 _270_
*317 _271_
*318 _272_
*319 _273_
*320 _274_
*321 _275_
*322 _276_
*323 _277_
*324 _278_
*325 _279_
*326 _280_
*327 _281_
*328 _282_
*329 _283_
*330 _284_
*331 _285_
*332 _286_
*333 _287_
*334 _288_
*335 _289_
*336 _290_
*337 _291_
*338 _292_
*339 _293_
*340 _294_
*341 _295_
*342 _296_
*343 _297_
*344 _298_
*345 _299_
*346 _300_
*347 _301_
*348 _302_
*349 _303_
*350 _304_
*351 _305_
*352 _306_
*353 _307_
*354 _308_
*355 _309_
*356 _310_
*357 _311_
*358 _312_
*359 _313_
*360 _314_
*361 _315_
*362 _316_
*363 _317_
*364 _318_
*365 _319_
*366 _320_
*367 _321_
*368 _322_
*369 _323_
*370 _324_
*371 _325_
*372 _326_
*373 _327_
*374 _328_
*375 _329_
*376 _330_
*377 _331_
*378 _332_
*379 _333_
*380 _334_
*381 _335_
*382 _336_
*383 _337_
*384 _338_
*385 _339_
*386 _340_
*387 _341_
*388 _342_
*389 _343_
*390 _344_
*391 _345_
*392 _346_
*393 _347_
*394 _348_
*395 _349_
*396 _350_
*397 _351_
*398 _352_
*399 _353_
*400 _354_
*401 _355_
*402 _356_
*403 _357_
*404 _358_
*405 _359_
*406 _360_
*407 _361_
*408 _362_
*409 _363_
*410 _364_
*411 _365_
*412 _366_
*413 _367_
*414 _368_
*415 _369_
*416 _370_
*417 _371_
*418 _372_
*419 _373_
*420 _374_
*421 _375_
*422 _376_
*423 _377_
*424 _378_
*425 _379_
*426 _380_
*427 _381_
*428 _382_
*429 _383_
*430 _384_
*431 _385_
*432 _386_
*433 _387_
*434 _388_
*435 _389_
*436 _390_
*437 _391_
*438 _392_
*439 _393_
*440 _394_
*441 _395_
*442 _396_
*443 _397_
*444 _398_
*445 _399_
*446 _400_
*447 _401_
*448 _402_
*449 clknet_0_clk
*450 clknet_3_0__leaf_clk
*451 clknet_3_1__leaf_clk
*452 clknet_3_2__leaf_clk
*453 clknet_3_3__leaf_clk
*454 clknet_3_4__leaf_clk
*455 clknet_3_5__leaf_clk
*456 clknet_3_6__leaf_clk
*457 clknet_3_7__leaf_clk
*458 net1
*459 net10
*460 net11
*461 net12
*462 net13
*463 net14
*464 net15
*465 net16
*466 net17
*467 net18
*468 net19
*469 net2
*470 net20
*471 net21
*472 net22
*473 net3
*474 net39
*475 net4
*476 net40
*477 net41
*478 net42
*479 net43
*480 net44
*481 net45
*482 net46
*483 net47
*484 net48
*485 net49
*486 net5
*487 net50
*488 net51
*489 net52
*490 net53
*491 net54
*492 net55
*493 net56
*494 net57
*495 net58
*496 net6
*497 net7
*498 net8
*499 net9
*500 simple_nco\.freqControlWord\[0\]
*501 simple_nco\.freqControlWord\[10\]
*502 simple_nco\.freqControlWord\[11\]
*503 simple_nco\.freqControlWord\[12\]
*504 simple_nco\.freqControlWord\[13\]
*505 simple_nco\.freqControlWord\[14\]
*506 simple_nco\.freqControlWord\[15\]
*507 simple_nco\.freqControlWord\[1\]
*508 simple_nco\.freqControlWord\[2\]
*509 simple_nco\.freqControlWord\[3\]
*510 simple_nco\.freqControlWord\[4\]
*511 simple_nco\.freqControlWord\[5\]
*512 simple_nco\.freqControlWord\[6\]
*513 simple_nco\.freqControlWord\[7\]
*514 simple_nco\.freqControlWord\[8\]
*515 simple_nco\.freqControlWord\[9\]
*516 simple_nco\.phaseAccuTruncatedMsb
*517 simple_nco\.phaseAccuTruncated\[0\]
*518 simple_nco\.phaseAccuTruncated\[1\]
*519 simple_nco\.phaseAccuTruncated\[2\]
*520 simple_nco\.phaseAccuTruncated\[3\]
*521 simple_nco\.phaseAccuTruncated\[4\]
*522 simple_nco\.phaseAccuTruncated\[5\]
*523 simple_nco\.phaseAccuTruncated\[6\]
*524 simple_nco\.phaseAccuTruncated\[7\]
*525 simple_nco\.phaseAccuTruncated\[8\]
*526 simple_nco\.phaseAccuTruncated\[9\]
*527 simple_nco\.phaseAccumulator\[0\]
*528 simple_nco\.phaseAccumulator\[1\]
*529 simple_nco\.phaseAccumulator\[2\]
*530 simple_nco\.phaseAccumulator\[3\]
*531 simple_nco\.phaseAccumulator\[4\]
*532 simple_nco\.phaseAccumulator\[5\]
*533 simple_nco\.sineOut\[0\]
*534 simple_nco\.sineOut\[1\]
*535 simple_nco\.sineOut\[2\]
*536 simple_nco\.sineOut\[3\]
*537 simple_nco\.sineOut\[4\]
*538 simple_nco\.sineOut\[5\]
*539 simple_nco\.sineOut\[6\]
*540 simple_nco\.sineOut\[7\]
*541 simple_nco\.sineRomAddr\[0\]
*542 simple_nco\.sineRomAddr\[1\]
*543 simple_nco\.sineRomAddr\[2\]
*544 simple_nco\.sineRomAddr\[3\]
*545 simple_nco\.sineRomAddr\[4\]
*546 simple_nco\.sineRomAddr\[5\]
*547 simple_nco\.sineRomAddr\[6\]
*548 simple_nco\.sineRomAddr\[7\]
*549 simple_nco\.squareOut\[0\]
*550 FILLER_0_0_109
*551 FILLER_0_0_113
*552 FILLER_0_0_125
*553 FILLER_0_0_137
*554 FILLER_0_0_141
*555 FILLER_0_0_15
*556 FILLER_0_0_153
*557 FILLER_0_0_165
*558 FILLER_0_0_169
*559 FILLER_0_0_181
*560 FILLER_0_0_193
*561 FILLER_0_0_197
*562 FILLER_0_0_209
*563 FILLER_0_0_221
*564 FILLER_0_0_225
*565 FILLER_0_0_237
*566 FILLER_0_0_249
*567 FILLER_0_0_253
*568 FILLER_0_0_265
*569 FILLER_0_0_27
*570 FILLER_0_0_277
*571 FILLER_0_0_281
*572 FILLER_0_0_29
*573 FILLER_0_0_293
*574 FILLER_0_0_3
*575 FILLER_0_0_305
*576 FILLER_0_0_309
*577 FILLER_0_0_321
*578 FILLER_0_0_333
*579 FILLER_0_0_41
*580 FILLER_0_0_53
*581 FILLER_0_0_57
*582 FILLER_0_0_69
*583 FILLER_0_0_81
*584 FILLER_0_0_85
*585 FILLER_0_0_97
*586 FILLER_0_10_109
*587 FILLER_0_10_121
*588 FILLER_0_10_133
*589 FILLER_0_10_139
*590 FILLER_0_10_141
*591 FILLER_0_10_15
*592 FILLER_0_10_153
*593 FILLER_0_10_165
*594 FILLER_0_10_177
*595 FILLER_0_10_189
*596 FILLER_0_10_195
*597 FILLER_0_10_197
*598 FILLER_0_10_209
*599 FILLER_0_10_221
*600 FILLER_0_10_233
*601 FILLER_0_10_245
*602 FILLER_0_10_251
*603 FILLER_0_10_253
*604 FILLER_0_10_265
*605 FILLER_0_10_27
*606 FILLER_0_10_277
*607 FILLER_0_10_289
*608 FILLER_0_10_29
*609 FILLER_0_10_3
*610 FILLER_0_10_301
*611 FILLER_0_10_307
*612 FILLER_0_10_309
*613 FILLER_0_10_321
*614 FILLER_0_10_333
*615 FILLER_0_10_41
*616 FILLER_0_10_53
*617 FILLER_0_10_65
*618 FILLER_0_10_77
*619 FILLER_0_10_83
*620 FILLER_0_10_85
*621 FILLER_0_10_97
*622 FILLER_0_11_105
*623 FILLER_0_11_111
*624 FILLER_0_11_113
*625 FILLER_0_11_125
*626 FILLER_0_11_137
*627 FILLER_0_11_149
*628 FILLER_0_11_15
*629 FILLER_0_11_161
*630 FILLER_0_11_167
*631 FILLER_0_11_169
*632 FILLER_0_11_181
*633 FILLER_0_11_193
*634 FILLER_0_11_205
*635 FILLER_0_11_217
*636 FILLER_0_11_223
*637 FILLER_0_11_225
*638 FILLER_0_11_237
*639 FILLER_0_11_249
*640 FILLER_0_11_261
*641 FILLER_0_11_27
*642 FILLER_0_11_273
*643 FILLER_0_11_279
*644 FILLER_0_11_281
*645 FILLER_0_11_293
*646 FILLER_0_11_3
*647 FILLER_0_11_305
*648 FILLER_0_11_317
*649 FILLER_0_11_329
*650 FILLER_0_11_39
*651 FILLER_0_11_51
*652 FILLER_0_11_55
*653 FILLER_0_11_57
*654 FILLER_0_11_69
*655 FILLER_0_11_81
*656 FILLER_0_11_93
*657 FILLER_0_12_109
*658 FILLER_0_12_121
*659 FILLER_0_12_133
*660 FILLER_0_12_139
*661 FILLER_0_12_141
*662 FILLER_0_12_15
*663 FILLER_0_12_153
*664 FILLER_0_12_165
*665 FILLER_0_12_177
*666 FILLER_0_12_189
*667 FILLER_0_12_195
*668 FILLER_0_12_197
*669 FILLER_0_12_209
*670 FILLER_0_12_221
*671 FILLER_0_12_233
*672 FILLER_0_12_245
*673 FILLER_0_12_251
*674 FILLER_0_12_253
*675 FILLER_0_12_265
*676 FILLER_0_12_27
*677 FILLER_0_12_277
*678 FILLER_0_12_289
*679 FILLER_0_12_29
*680 FILLER_0_12_3
*681 FILLER_0_12_301
*682 FILLER_0_12_307
*683 FILLER_0_12_309
*684 FILLER_0_12_321
*685 FILLER_0_12_333
*686 FILLER_0_12_41
*687 FILLER_0_12_53
*688 FILLER_0_12_65
*689 FILLER_0_12_70
*690 FILLER_0_12_82
*691 FILLER_0_12_85
*692 FILLER_0_12_97
*693 FILLER_0_13_109
*694 FILLER_0_13_113
*695 FILLER_0_13_125
*696 FILLER_0_13_137
*697 FILLER_0_13_149
*698 FILLER_0_13_15
*699 FILLER_0_13_161
*700 FILLER_0_13_167
*701 FILLER_0_13_169
*702 FILLER_0_13_181
*703 FILLER_0_13_193
*704 FILLER_0_13_205
*705 FILLER_0_13_217
*706 FILLER_0_13_223
*707 FILLER_0_13_225
*708 FILLER_0_13_237
*709 FILLER_0_13_249
*710 FILLER_0_13_261
*711 FILLER_0_13_27
*712 FILLER_0_13_273
*713 FILLER_0_13_279
*714 FILLER_0_13_281
*715 FILLER_0_13_293
*716 FILLER_0_13_3
*717 FILLER_0_13_305
*718 FILLER_0_13_317
*719 FILLER_0_13_329
*720 FILLER_0_13_39
*721 FILLER_0_13_51
*722 FILLER_0_13_55
*723 FILLER_0_13_80
*724 FILLER_0_13_92
*725 FILLER_0_13_98
*726 FILLER_0_14_130
*727 FILLER_0_14_137
*728 FILLER_0_14_141
*729 FILLER_0_14_15
*730 FILLER_0_14_154
*731 FILLER_0_14_166
*732 FILLER_0_14_178
*733 FILLER_0_14_190
*734 FILLER_0_14_197
*735 FILLER_0_14_209
*736 FILLER_0_14_221
*737 FILLER_0_14_233
*738 FILLER_0_14_245
*739 FILLER_0_14_251
*740 FILLER_0_14_253
*741 FILLER_0_14_265
*742 FILLER_0_14_27
*743 FILLER_0_14_277
*744 FILLER_0_14_289
*745 FILLER_0_14_29
*746 FILLER_0_14_3
*747 FILLER_0_14_301
*748 FILLER_0_14_307
*749 FILLER_0_14_309
*750 FILLER_0_14_321
*751 FILLER_0_14_333
*752 FILLER_0_14_41
*753 FILLER_0_14_49
*754 FILLER_0_14_79
*755 FILLER_0_15_111
*756 FILLER_0_15_113
*757 FILLER_0_15_127
*758 FILLER_0_15_131
*759 FILLER_0_15_140
*760 FILLER_0_15_15
*761 FILLER_0_15_150
*762 FILLER_0_15_167
*763 FILLER_0_15_173
*764 FILLER_0_15_185
*765 FILLER_0_15_197
*766 FILLER_0_15_209
*767 FILLER_0_15_221
*768 FILLER_0_15_225
*769 FILLER_0_15_237
*770 FILLER_0_15_249
*771 FILLER_0_15_261
*772 FILLER_0_15_27
*773 FILLER_0_15_273
*774 FILLER_0_15_279
*775 FILLER_0_15_281
*776 FILLER_0_15_293
*777 FILLER_0_15_3
*778 FILLER_0_15_305
*779 FILLER_0_15_317
*780 FILLER_0_15_329
*781 FILLER_0_15_33
*782 FILLER_0_15_45
*783 FILLER_0_15_51
*784 FILLER_0_15_57
*785 FILLER_0_15_77
*786 FILLER_0_15_89
*787 FILLER_0_15_95
*788 FILLER_0_16_108
*789 FILLER_0_16_119
*790 FILLER_0_16_136
*791 FILLER_0_16_141
*792 FILLER_0_16_15
*793 FILLER_0_16_151
*794 FILLER_0_16_173
*795 FILLER_0_16_185
*796 FILLER_0_16_193
*797 FILLER_0_16_197
*798 FILLER_0_16_209
*799 FILLER_0_16_221
*800 FILLER_0_16_23
*801 FILLER_0_16_233
*802 FILLER_0_16_245
*803 FILLER_0_16_251
*804 FILLER_0_16_253
*805 FILLER_0_16_265
*806 FILLER_0_16_277
*807 FILLER_0_16_289
*808 FILLER_0_16_29
*809 FILLER_0_16_3
*810 FILLER_0_16_301
*811 FILLER_0_16_307
*812 FILLER_0_16_309
*813 FILLER_0_16_321
*814 FILLER_0_16_333
*815 FILLER_0_16_49
*816 FILLER_0_16_61
*817 FILLER_0_16_81
*818 FILLER_0_16_85
*819 FILLER_0_16_99
*820 FILLER_0_17_113
*821 FILLER_0_17_131
*822 FILLER_0_17_139
*823 FILLER_0_17_15
*824 FILLER_0_17_159
*825 FILLER_0_17_167
*826 FILLER_0_17_175
*827 FILLER_0_17_199
*828 FILLER_0_17_211
*829 FILLER_0_17_223
*830 FILLER_0_17_225
*831 FILLER_0_17_23
*832 FILLER_0_17_237
*833 FILLER_0_17_249
*834 FILLER_0_17_261
*835 FILLER_0_17_273
*836 FILLER_0_17_279
*837 FILLER_0_17_281
*838 FILLER_0_17_293
*839 FILLER_0_17_3
*840 FILLER_0_17_305
*841 FILLER_0_17_317
*842 FILLER_0_17_329
*843 FILLER_0_17_48
*844 FILLER_0_17_57
*845 FILLER_0_17_69
*846 FILLER_0_17_84
*847 FILLER_0_17_95
*848 FILLER_0_18_111
*849 FILLER_0_18_138
*850 FILLER_0_18_141
*851 FILLER_0_18_147
*852 FILLER_0_18_15
*853 FILLER_0_18_171
*854 FILLER_0_18_178
*855 FILLER_0_18_190
*856 FILLER_0_18_197
*857 FILLER_0_18_209
*858 FILLER_0_18_221
*859 FILLER_0_18_233
*860 FILLER_0_18_245
*861 FILLER_0_18_251
*862 FILLER_0_18_253
*863 FILLER_0_18_265
*864 FILLER_0_18_27
*865 FILLER_0_18_277
*866 FILLER_0_18_289
*867 FILLER_0_18_29
*868 FILLER_0_18_3
*869 FILLER_0_18_301
*870 FILLER_0_18_307
*871 FILLER_0_18_309
*872 FILLER_0_18_321
*873 FILLER_0_18_333
*874 FILLER_0_18_45
*875 FILLER_0_18_57
*876 FILLER_0_18_61
*877 FILLER_0_18_67
*878 FILLER_0_18_73
*879 FILLER_0_18_81
*880 FILLER_0_18_85
*881 FILLER_0_18_99
*882 FILLER_0_19_109
*883 FILLER_0_19_113
*884 FILLER_0_19_130
*885 FILLER_0_19_137
*886 FILLER_0_19_147
*887 FILLER_0_19_15
*888 FILLER_0_19_151
*889 FILLER_0_19_166
*890 FILLER_0_19_175
*891 FILLER_0_19_183
*892 FILLER_0_19_195
*893 FILLER_0_19_207
*894 FILLER_0_19_219
*895 FILLER_0_19_223
*896 FILLER_0_19_225
*897 FILLER_0_19_237
*898 FILLER_0_19_249
*899 FILLER_0_19_261
*900 FILLER_0_19_27
*901 FILLER_0_19_273
*902 FILLER_0_19_279
*903 FILLER_0_19_281
*904 FILLER_0_19_293
*905 FILLER_0_19_3
*906 FILLER_0_19_305
*907 FILLER_0_19_317
*908 FILLER_0_19_329
*909 FILLER_0_19_51
*910 FILLER_0_19_55
*911 FILLER_0_19_57
*912 FILLER_0_19_62
*913 FILLER_0_19_73
*914 FILLER_0_19_97
*915 FILLER_0_1_105
*916 FILLER_0_1_111
*917 FILLER_0_1_113
*918 FILLER_0_1_125
*919 FILLER_0_1_137
*920 FILLER_0_1_149
*921 FILLER_0_1_15
*922 FILLER_0_1_161
*923 FILLER_0_1_167
*924 FILLER_0_1_169
*925 FILLER_0_1_181
*926 FILLER_0_1_193
*927 FILLER_0_1_205
*928 FILLER_0_1_217
*929 FILLER_0_1_223
*930 FILLER_0_1_225
*931 FILLER_0_1_237
*932 FILLER_0_1_249
*933 FILLER_0_1_261
*934 FILLER_0_1_27
*935 FILLER_0_1_273
*936 FILLER_0_1_279
*937 FILLER_0_1_281
*938 FILLER_0_1_293
*939 FILLER_0_1_3
*940 FILLER_0_1_305
*941 FILLER_0_1_317
*942 FILLER_0_1_329
*943 FILLER_0_1_39
*944 FILLER_0_1_51
*945 FILLER_0_1_55
*946 FILLER_0_1_57
*947 FILLER_0_1_69
*948 FILLER_0_1_81
*949 FILLER_0_1_93
*950 FILLER_0_20_101
*951 FILLER_0_20_121
*952 FILLER_0_20_130
*953 FILLER_0_20_147
*954 FILLER_0_20_15
*955 FILLER_0_20_159
*956 FILLER_0_20_167
*957 FILLER_0_20_193
*958 FILLER_0_20_197
*959 FILLER_0_20_209
*960 FILLER_0_20_221
*961 FILLER_0_20_233
*962 FILLER_0_20_245
*963 FILLER_0_20_251
*964 FILLER_0_20_253
*965 FILLER_0_20_265
*966 FILLER_0_20_27
*967 FILLER_0_20_277
*968 FILLER_0_20_289
*969 FILLER_0_20_29
*970 FILLER_0_20_3
*971 FILLER_0_20_301
*972 FILLER_0_20_307
*973 FILLER_0_20_309
*974 FILLER_0_20_321
*975 FILLER_0_20_333
*976 FILLER_0_20_43
*977 FILLER_0_20_52
*978 FILLER_0_20_58
*979 FILLER_0_20_70
*980 FILLER_0_21_109
*981 FILLER_0_21_113
*982 FILLER_0_21_149
*983 FILLER_0_21_15
*984 FILLER_0_21_169
*985 FILLER_0_21_195
*986 FILLER_0_21_207
*987 FILLER_0_21_219
*988 FILLER_0_21_223
*989 FILLER_0_21_233
*990 FILLER_0_21_245
*991 FILLER_0_21_27
*992 FILLER_0_21_276
*993 FILLER_0_21_281
*994 FILLER_0_21_293
*995 FILLER_0_21_3
*996 FILLER_0_21_305
*997 FILLER_0_21_317
*998 FILLER_0_21_329
*999 FILLER_0_21_39
*1000 FILLER_0_21_49
*1001 FILLER_0_21_55
*1002 FILLER_0_21_57
*1003 FILLER_0_21_68
*1004 FILLER_0_21_77
*1005 FILLER_0_21_83
*1006 FILLER_0_21_95
*1007 FILLER_0_22_104
*1008 FILLER_0_22_116
*1009 FILLER_0_22_128
*1010 FILLER_0_22_15
*1011 FILLER_0_22_155
*1012 FILLER_0_22_193
*1013 FILLER_0_22_197
*1014 FILLER_0_22_209
*1015 FILLER_0_22_213
*1016 FILLER_0_22_237
*1017 FILLER_0_22_249
*1018 FILLER_0_22_27
*1019 FILLER_0_22_276
*1020 FILLER_0_22_288
*1021 FILLER_0_22_3
*1022 FILLER_0_22_300
*1023 FILLER_0_22_309
*1024 FILLER_0_22_321
*1025 FILLER_0_22_333
*1026 FILLER_0_22_38
*1027 FILLER_0_22_42
*1028 FILLER_0_22_53
*1029 FILLER_0_22_82
*1030 FILLER_0_22_85
*1031 FILLER_0_23_111
*1032 FILLER_0_23_113
*1033 FILLER_0_23_124
*1034 FILLER_0_23_147
*1035 FILLER_0_23_15
*1036 FILLER_0_23_159
*1037 FILLER_0_23_163
*1038 FILLER_0_23_169
*1039 FILLER_0_23_185
*1040 FILLER_0_23_193
*1041 FILLER_0_23_218
*1042 FILLER_0_23_225
*1043 FILLER_0_23_237
*1044 FILLER_0_23_27
*1045 FILLER_0_23_271
*1046 FILLER_0_23_279
*1047 FILLER_0_23_281
*1048 FILLER_0_23_3
*1049 FILLER_0_23_315
*1050 FILLER_0_23_327
*1051 FILLER_0_23_38
*1052 FILLER_0_23_48
*1053 FILLER_0_23_57
*1054 FILLER_0_23_66
*1055 FILLER_0_23_78
*1056 FILLER_0_23_82
*1057 FILLER_0_23_87
*1058 FILLER_0_23_99
*1059 FILLER_0_24_108
*1060 FILLER_0_24_126
*1061 FILLER_0_24_134
*1062 FILLER_0_24_149
*1063 FILLER_0_24_15
*1064 FILLER_0_24_160
*1065 FILLER_0_24_181
*1066 FILLER_0_24_193
*1067 FILLER_0_24_197
*1068 FILLER_0_24_205
*1069 FILLER_0_24_234
*1070 FILLER_0_24_243
*1071 FILLER_0_24_253
*1072 FILLER_0_24_27
*1073 FILLER_0_24_274
*1074 FILLER_0_24_280
*1075 FILLER_0_24_29
*1076 FILLER_0_24_3
*1077 FILLER_0_24_306
*1078 FILLER_0_24_329
*1079 FILLER_0_24_45
*1080 FILLER_0_24_49
*1081 FILLER_0_24_54
*1082 FILLER_0_24_66
*1083 FILLER_0_24_81
*1084 FILLER_0_24_85
*1085 FILLER_0_24_96
*1086 FILLER_0_25_15
*1087 FILLER_0_25_158
*1088 FILLER_0_25_176
*1089 FILLER_0_25_188
*1090 FILLER_0_25_196
*1091 FILLER_0_25_202
*1092 FILLER_0_25_207
*1093 FILLER_0_25_215
*1094 FILLER_0_25_225
*1095 FILLER_0_25_252
*1096 FILLER_0_25_269
*1097 FILLER_0_25_27
*1098 FILLER_0_25_277
*1099 FILLER_0_25_281
*1100 FILLER_0_25_295
*1101 FILLER_0_25_3
*1102 FILLER_0_25_306
*1103 FILLER_0_25_328
*1104 FILLER_0_25_39
*1105 FILLER_0_25_51
*1106 FILLER_0_25_55
*1107 FILLER_0_25_57
*1108 FILLER_0_25_61
*1109 FILLER_0_25_88
*1110 FILLER_0_26_118
*1111 FILLER_0_26_129
*1112 FILLER_0_26_137
*1113 FILLER_0_26_141
*1114 FILLER_0_26_15
*1115 FILLER_0_26_166
*1116 FILLER_0_26_192
*1117 FILLER_0_26_224
*1118 FILLER_0_26_234
*1119 FILLER_0_26_247
*1120 FILLER_0_26_251
*1121 FILLER_0_26_253
*1122 FILLER_0_26_266
*1123 FILLER_0_26_27
*1124 FILLER_0_26_270
*1125 FILLER_0_26_29
*1126 FILLER_0_26_291
*1127 FILLER_0_26_3
*1128 FILLER_0_26_307
*1129 FILLER_0_26_334
*1130 FILLER_0_26_57
*1131 FILLER_0_26_65
*1132 FILLER_0_26_83
*1133 FILLER_0_26_88
*1134 FILLER_0_26_96
*1135 FILLER_0_27_108
*1136 FILLER_0_27_113
*1137 FILLER_0_27_121
*1138 FILLER_0_27_15
*1139 FILLER_0_27_159
*1140 FILLER_0_27_167
*1141 FILLER_0_27_169
*1142 FILLER_0_27_181
*1143 FILLER_0_27_189
*1144 FILLER_0_27_207
*1145 FILLER_0_27_219
*1146 FILLER_0_27_223
*1147 FILLER_0_27_225
*1148 FILLER_0_27_251
*1149 FILLER_0_27_263
*1150 FILLER_0_27_269
*1151 FILLER_0_27_27
*1152 FILLER_0_27_273
*1153 FILLER_0_27_279
*1154 FILLER_0_27_284
*1155 FILLER_0_27_296
*1156 FILLER_0_27_3
*1157 FILLER_0_27_302
*1158 FILLER_0_27_308
*1159 FILLER_0_27_317
*1160 FILLER_0_27_334
*1161 FILLER_0_27_39
*1162 FILLER_0_27_48
*1163 FILLER_0_27_57
*1164 FILLER_0_27_68
*1165 FILLER_0_27_72
*1166 FILLER_0_27_77
*1167 FILLER_0_27_84
*1168 FILLER_0_27_96
*1169 FILLER_0_28_126
*1170 FILLER_0_28_138
*1171 FILLER_0_28_141
*1172 FILLER_0_28_15
*1173 FILLER_0_28_162
*1174 FILLER_0_28_174
*1175 FILLER_0_28_182
*1176 FILLER_0_28_192
*1177 FILLER_0_28_217
*1178 FILLER_0_28_229
*1179 FILLER_0_28_246
*1180 FILLER_0_28_253
*1181 FILLER_0_28_265
*1182 FILLER_0_28_27
*1183 FILLER_0_28_29
*1184 FILLER_0_28_3
*1185 FILLER_0_28_306
*1186 FILLER_0_28_334
*1187 FILLER_0_28_41
*1188 FILLER_0_28_45
*1189 FILLER_0_28_58
*1190 FILLER_0_28_74
*1191 FILLER_0_28_82
*1192 FILLER_0_28_85
*1193 FILLER_0_28_97
*1194 FILLER_0_29_133
*1195 FILLER_0_29_145
*1196 FILLER_0_29_15
*1197 FILLER_0_29_154
*1198 FILLER_0_29_166
*1199 FILLER_0_29_169
*1200 FILLER_0_29_221
*1201 FILLER_0_29_230
*1202 FILLER_0_29_238
*1203 FILLER_0_29_259
*1204 FILLER_0_29_27
*1205 FILLER_0_29_276
*1206 FILLER_0_29_290
*1207 FILLER_0_29_3
*1208 FILLER_0_29_333
*1209 FILLER_0_29_55
*1210 FILLER_0_29_72
*1211 FILLER_0_29_84
*1212 FILLER_0_2_109
*1213 FILLER_0_2_121
*1214 FILLER_0_2_133
*1215 FILLER_0_2_139
*1216 FILLER_0_2_141
*1217 FILLER_0_2_15
*1218 FILLER_0_2_153
*1219 FILLER_0_2_165
*1220 FILLER_0_2_177
*1221 FILLER_0_2_189
*1222 FILLER_0_2_195
*1223 FILLER_0_2_197
*1224 FILLER_0_2_209
*1225 FILLER_0_2_221
*1226 FILLER_0_2_233
*1227 FILLER_0_2_245
*1228 FILLER_0_2_251
*1229 FILLER_0_2_253
*1230 FILLER_0_2_265
*1231 FILLER_0_2_27
*1232 FILLER_0_2_277
*1233 FILLER_0_2_289
*1234 FILLER_0_2_29
*1235 FILLER_0_2_3
*1236 FILLER_0_2_301
*1237 FILLER_0_2_307
*1238 FILLER_0_2_309
*1239 FILLER_0_2_321
*1240 FILLER_0_2_333
*1241 FILLER_0_2_41
*1242 FILLER_0_2_53
*1243 FILLER_0_2_65
*1244 FILLER_0_2_77
*1245 FILLER_0_2_83
*1246 FILLER_0_2_85
*1247 FILLER_0_2_97
*1248 FILLER_0_30_103
*1249 FILLER_0_30_115
*1250 FILLER_0_30_119
*1251 FILLER_0_30_128
*1252 FILLER_0_30_141
*1253 FILLER_0_30_15
*1254 FILLER_0_30_176
*1255 FILLER_0_30_212
*1256 FILLER_0_30_224
*1257 FILLER_0_30_236
*1258 FILLER_0_30_253
*1259 FILLER_0_30_257
*1260 FILLER_0_30_27
*1261 FILLER_0_30_29
*1262 FILLER_0_30_290
*1263 FILLER_0_30_298
*1264 FILLER_0_30_3
*1265 FILLER_0_30_309
*1266 FILLER_0_30_322
*1267 FILLER_0_30_334
*1268 FILLER_0_30_41
*1269 FILLER_0_30_53
*1270 FILLER_0_30_57
*1271 FILLER_0_30_70
*1272 FILLER_0_30_83
*1273 FILLER_0_30_95
*1274 FILLER_0_31_110
*1275 FILLER_0_31_121
*1276 FILLER_0_31_149
*1277 FILLER_0_31_15
*1278 FILLER_0_31_159
*1279 FILLER_0_31_167
*1280 FILLER_0_31_169
*1281 FILLER_0_31_188
*1282 FILLER_0_31_220
*1283 FILLER_0_31_225
*1284 FILLER_0_31_234
*1285 FILLER_0_31_244
*1286 FILLER_0_31_27
*1287 FILLER_0_31_276
*1288 FILLER_0_31_290
*1289 FILLER_0_31_3
*1290 FILLER_0_31_302
*1291 FILLER_0_31_314
*1292 FILLER_0_31_331
*1293 FILLER_0_31_39
*1294 FILLER_0_31_46
*1295 FILLER_0_31_54
*1296 FILLER_0_31_70
*1297 FILLER_0_31_78
*1298 FILLER_0_32_131
*1299 FILLER_0_32_141
*1300 FILLER_0_32_149
*1301 FILLER_0_32_15
*1302 FILLER_0_32_194
*1303 FILLER_0_32_204
*1304 FILLER_0_32_214
*1305 FILLER_0_32_222
*1306 FILLER_0_32_245
*1307 FILLER_0_32_251
*1308 FILLER_0_32_253
*1309 FILLER_0_32_27
*1310 FILLER_0_32_285
*1311 FILLER_0_32_29
*1312 FILLER_0_32_297
*1313 FILLER_0_32_3
*1314 FILLER_0_32_329
*1315 FILLER_0_32_35
*1316 FILLER_0_32_56
*1317 FILLER_0_32_71
*1318 FILLER_0_32_83
*1319 FILLER_0_32_85
*1320 FILLER_0_33_113
*1321 FILLER_0_33_117
*1322 FILLER_0_33_140
*1323 FILLER_0_33_15
*1324 FILLER_0_33_158
*1325 FILLER_0_33_166
*1326 FILLER_0_33_169
*1327 FILLER_0_33_181
*1328 FILLER_0_33_189
*1329 FILLER_0_33_203
*1330 FILLER_0_33_215
*1331 FILLER_0_33_223
*1332 FILLER_0_33_257
*1333 FILLER_0_33_27
*1334 FILLER_0_33_278
*1335 FILLER_0_33_3
*1336 FILLER_0_33_301
*1337 FILLER_0_33_328
*1338 FILLER_0_33_334
*1339 FILLER_0_33_35
*1340 FILLER_0_33_57
*1341 FILLER_0_33_89
*1342 FILLER_0_34_130
*1343 FILLER_0_34_138
*1344 FILLER_0_34_141
*1345 FILLER_0_34_15
*1346 FILLER_0_34_165
*1347 FILLER_0_34_174
*1348 FILLER_0_34_182
*1349 FILLER_0_34_204
*1350 FILLER_0_34_216
*1351 FILLER_0_34_27
*1352 FILLER_0_34_273
*1353 FILLER_0_34_285
*1354 FILLER_0_34_29
*1355 FILLER_0_34_297
*1356 FILLER_0_34_3
*1357 FILLER_0_34_322
*1358 FILLER_0_34_41
*1359 FILLER_0_34_45
*1360 FILLER_0_34_49
*1361 FILLER_0_34_55
*1362 FILLER_0_34_65
*1363 FILLER_0_34_77
*1364 FILLER_0_34_83
*1365 FILLER_0_34_94
*1366 FILLER_0_35_103
*1367 FILLER_0_35_113
*1368 FILLER_0_35_117
*1369 FILLER_0_35_126
*1370 FILLER_0_35_15
*1371 FILLER_0_35_169
*1372 FILLER_0_35_212
*1373 FILLER_0_35_225
*1374 FILLER_0_35_247
*1375 FILLER_0_35_259
*1376 FILLER_0_35_27
*1377 FILLER_0_35_284
*1378 FILLER_0_35_3
*1379 FILLER_0_35_331
*1380 FILLER_0_35_39
*1381 FILLER_0_35_51
*1382 FILLER_0_35_55
*1383 FILLER_0_35_57
*1384 FILLER_0_35_61
*1385 FILLER_0_35_74
*1386 FILLER_0_36_129
*1387 FILLER_0_36_133
*1388 FILLER_0_36_15
*1389 FILLER_0_36_190
*1390 FILLER_0_36_197
*1391 FILLER_0_36_212
*1392 FILLER_0_36_250
*1393 FILLER_0_36_27
*1394 FILLER_0_36_29
*1395 FILLER_0_36_3
*1396 FILLER_0_36_306
*1397 FILLER_0_36_329
*1398 FILLER_0_36_41
*1399 FILLER_0_36_53
*1400 FILLER_0_36_57
*1401 FILLER_0_36_78
*1402 FILLER_0_36_85
*1403 FILLER_0_36_93
*1404 FILLER_0_37_113
*1405 FILLER_0_37_121
*1406 FILLER_0_37_15
*1407 FILLER_0_37_169
*1408 FILLER_0_37_173
*1409 FILLER_0_37_197
*1410 FILLER_0_37_221
*1411 FILLER_0_37_225
*1412 FILLER_0_37_256
*1413 FILLER_0_37_264
*1414 FILLER_0_37_27
*1415 FILLER_0_37_290
*1416 FILLER_0_37_294
*1417 FILLER_0_37_3
*1418 FILLER_0_37_333
*1419 FILLER_0_37_39
*1420 FILLER_0_37_51
*1421 FILLER_0_37_55
*1422 FILLER_0_37_57
*1423 FILLER_0_37_69
*1424 FILLER_0_37_73
*1425 FILLER_0_37_82
*1426 FILLER_0_37_88
*1427 FILLER_0_38_10
*1428 FILLER_0_38_102
*1429 FILLER_0_38_106
*1430 FILLER_0_38_110
*1431 FILLER_0_38_113
*1432 FILLER_0_38_118
*1433 FILLER_0_38_122
*1434 FILLER_0_38_126
*1435 FILLER_0_38_138
*1436 FILLER_0_38_14
*1437 FILLER_0_38_141
*1438 FILLER_0_38_153
*1439 FILLER_0_38_165
*1440 FILLER_0_38_169
*1441 FILLER_0_38_177
*1442 FILLER_0_38_18
*1443 FILLER_0_38_188
*1444 FILLER_0_38_197
*1445 FILLER_0_38_209
*1446 FILLER_0_38_22
*1447 FILLER_0_38_221
*1448 FILLER_0_38_225
*1449 FILLER_0_38_231
*1450 FILLER_0_38_239
*1451 FILLER_0_38_249
*1452 FILLER_0_38_256
*1453 FILLER_0_38_262
*1454 FILLER_0_38_266
*1455 FILLER_0_38_279
*1456 FILLER_0_38_287
*1457 FILLER_0_38_294
*1458 FILLER_0_38_298
*1459 FILLER_0_38_32
*1460 FILLER_0_38_38
*1461 FILLER_0_38_42
*1462 FILLER_0_38_46
*1463 FILLER_0_38_50
*1464 FILLER_0_38_54
*1465 FILLER_0_38_57
*1466 FILLER_0_38_6
*1467 FILLER_0_38_62
*1468 FILLER_0_38_66
*1469 FILLER_0_38_70
*1470 FILLER_0_38_74
*1471 FILLER_0_38_78
*1472 FILLER_0_38_88
*1473 FILLER_0_38_94
*1474 FILLER_0_38_98
*1475 FILLER_0_3_105
*1476 FILLER_0_3_111
*1477 FILLER_0_3_113
*1478 FILLER_0_3_125
*1479 FILLER_0_3_137
*1480 FILLER_0_3_149
*1481 FILLER_0_3_15
*1482 FILLER_0_3_161
*1483 FILLER_0_3_167
*1484 FILLER_0_3_169
*1485 FILLER_0_3_181
*1486 FILLER_0_3_193
*1487 FILLER_0_3_205
*1488 FILLER_0_3_217
*1489 FILLER_0_3_223
*1490 FILLER_0_3_225
*1491 FILLER_0_3_237
*1492 FILLER_0_3_249
*1493 FILLER_0_3_261
*1494 FILLER_0_3_27
*1495 FILLER_0_3_273
*1496 FILLER_0_3_279
*1497 FILLER_0_3_281
*1498 FILLER_0_3_293
*1499 FILLER_0_3_3
*1500 FILLER_0_3_305
*1501 FILLER_0_3_317
*1502 FILLER_0_3_329
*1503 FILLER_0_3_39
*1504 FILLER_0_3_51
*1505 FILLER_0_3_55
*1506 FILLER_0_3_57
*1507 FILLER_0_3_69
*1508 FILLER_0_3_81
*1509 FILLER_0_3_93
*1510 FILLER_0_4_109
*1511 FILLER_0_4_121
*1512 FILLER_0_4_133
*1513 FILLER_0_4_139
*1514 FILLER_0_4_141
*1515 FILLER_0_4_15
*1516 FILLER_0_4_153
*1517 FILLER_0_4_165
*1518 FILLER_0_4_177
*1519 FILLER_0_4_189
*1520 FILLER_0_4_195
*1521 FILLER_0_4_197
*1522 FILLER_0_4_209
*1523 FILLER_0_4_221
*1524 FILLER_0_4_233
*1525 FILLER_0_4_245
*1526 FILLER_0_4_251
*1527 FILLER_0_4_253
*1528 FILLER_0_4_265
*1529 FILLER_0_4_27
*1530 FILLER_0_4_277
*1531 FILLER_0_4_289
*1532 FILLER_0_4_29
*1533 FILLER_0_4_3
*1534 FILLER_0_4_301
*1535 FILLER_0_4_307
*1536 FILLER_0_4_309
*1537 FILLER_0_4_321
*1538 FILLER_0_4_333
*1539 FILLER_0_4_41
*1540 FILLER_0_4_53
*1541 FILLER_0_4_65
*1542 FILLER_0_4_77
*1543 FILLER_0_4_83
*1544 FILLER_0_4_85
*1545 FILLER_0_4_97
*1546 FILLER_0_5_105
*1547 FILLER_0_5_111
*1548 FILLER_0_5_113
*1549 FILLER_0_5_125
*1550 FILLER_0_5_137
*1551 FILLER_0_5_149
*1552 FILLER_0_5_15
*1553 FILLER_0_5_161
*1554 FILLER_0_5_167
*1555 FILLER_0_5_169
*1556 FILLER_0_5_181
*1557 FILLER_0_5_193
*1558 FILLER_0_5_205
*1559 FILLER_0_5_217
*1560 FILLER_0_5_223
*1561 FILLER_0_5_225
*1562 FILLER_0_5_237
*1563 FILLER_0_5_249
*1564 FILLER_0_5_261
*1565 FILLER_0_5_27
*1566 FILLER_0_5_273
*1567 FILLER_0_5_279
*1568 FILLER_0_5_281
*1569 FILLER_0_5_293
*1570 FILLER_0_5_3
*1571 FILLER_0_5_305
*1572 FILLER_0_5_317
*1573 FILLER_0_5_329
*1574 FILLER_0_5_39
*1575 FILLER_0_5_51
*1576 FILLER_0_5_55
*1577 FILLER_0_5_57
*1578 FILLER_0_5_69
*1579 FILLER_0_5_81
*1580 FILLER_0_5_93
*1581 FILLER_0_6_109
*1582 FILLER_0_6_121
*1583 FILLER_0_6_133
*1584 FILLER_0_6_139
*1585 FILLER_0_6_141
*1586 FILLER_0_6_15
*1587 FILLER_0_6_153
*1588 FILLER_0_6_165
*1589 FILLER_0_6_177
*1590 FILLER_0_6_189
*1591 FILLER_0_6_195
*1592 FILLER_0_6_197
*1593 FILLER_0_6_209
*1594 FILLER_0_6_221
*1595 FILLER_0_6_233
*1596 FILLER_0_6_245
*1597 FILLER_0_6_251
*1598 FILLER_0_6_253
*1599 FILLER_0_6_265
*1600 FILLER_0_6_27
*1601 FILLER_0_6_277
*1602 FILLER_0_6_289
*1603 FILLER_0_6_29
*1604 FILLER_0_6_3
*1605 FILLER_0_6_301
*1606 FILLER_0_6_307
*1607 FILLER_0_6_309
*1608 FILLER_0_6_321