*SPEF "ieee 1481-1999"
*DESIGN "tt_um_couchand_dual_deque"
*DATE "11:11:11 Fri 11 11, 1111"
*VENDOR "OpenRCX"
*PROGRAM "Parallel Extraction"
*VERSION "1.0"
*DESIGN_FLOW "NAME_SCOPE LOCAL" "PIN_CAP NONE"
*DIVIDER /
*DELIMITER :
*BUS_DELIMITER []
*T_UNIT 1 NS
*C_UNIT 1 PF
*R_UNIT 1 OHM
*L_UNIT 1 HENRY

*NAME_MAP
*3 clk
*4 ena
*5 rst_n
*6 ui_in[0]
*7 ui_in[1]
*8 ui_in[2]
*9 ui_in[3]
*10 ui_in[4]
*11 ui_in[5]
*12 ui_in[6]
*13 ui_in[7]
*14 uio_in[0]
*15 uio_in[1]
*16 uio_in[2]
*17 uio_in[3]
*18 uio_in[4]
*19 uio_in[5]
*20 uio_in[6]
*21 uio_in[7]
*22 net16
*23 net17
*24 net18
*25 net19
*26 net24
*27 net25
*28 net26
*29 net27
*30 net20
*31 net21
*32 net22
*33 net23
*34 uio_out[4]
*35 uio_out[5]
*36 uio_out[6]
*37 uio_out[7]
*38 uo_out[0]
*39 uo_out[1]
*40 uo_out[2]
*41 uo_out[3]
*42 uo_out[4]
*43 uo_out[5]
*44 uo_out[6]
*45 uo_out[7]
*46 _0000_
*47 _0001_
*48 _0002_
*49 _0003_
*50 _0004_
*51 _0005_
*52 _0006_
*53 _0007_
*54 _0008_
*55 _0009_
*56 _0010_
*57 _0011_
*58 _0012_
*59 _0013_
*60 _0014_
*61 _0015_
*62 _0016_
*63 _0017_
*64 _0018_
*65 _0019_
*66 _0020_
*67 _0021_
*68 _0022_
*69 _0023_
*70 _0024_
*71 _0025_
*72 _0026_
*73 _0027_
*74 _0028_
*75 _0029_
*76 _0030_
*77 _0031_
*78 _0032_
*79 _0033_
*80 _0034_
*81 _0035_
*82 _0036_
*83 _0037_
*84 _0038_
*85 _0039_
*86 _0040_
*87 _0041_
*88 _0042_
*89 _0043_
*90 _0044_
*91 _0045_
*92 _0046_
*93 _0047_
*94 _0048_
*95 _0049_
*96 _0050_
*97 _0051_
*98 _0052_
*99 _0053_
*100 _0054_
*101 _0055_
*102 _0056_
*103 _0057_
*104 _0058_
*105 _0059_
*106 _0060_
*107 _0061_
*108 _0062_
*109 _0063_
*110 _0064_
*111 _0065_
*112 _0066_
*113 _0067_
*114 _0068_
*115 _0069_
*116 _0070_
*117 _0071_
*118 _0072_
*119 _0073_
*120 _0074_
*121 _0075_
*122 _0076_
*123 _0077_
*124 _0078_
*125 _0079_
*126 _0080_
*127 _0081_
*128 _0082_
*129 _0083_
*130 _0084_
*131 _0085_
*132 _0086_
*133 _0087_
*134 _0088_
*135 _0089_
*136 _0090_
*137 _0091_
*138 _0092_
*139 _0093_
*140 _0094_
*141 _0095_
*142 _0096_
*143 _0097_
*144 _0098_
*145 _0099_
*146 _0100_
*147 _0101_
*148 _0102_
*149 _0103_
*150 _0104_
*151 _0105_
*152 _0106_
*153 _0107_
*154 _0108_
*155 _0109_
*156 _0110_
*157 _0111_
*158 _0112_
*159 _0113_
*160 _0114_
*161 _0115_
*162 _0116_
*163 _0117_
*164 _0118_
*165 _0119_
*166 _0120_
*167 _0121_
*168 _0122_
*169 _0123_
*170 _0124_
*171 _0125_
*172 _0126_
*173 _0127_
*174 _0128_
*175 _0129_
*176 _0130_
*177 _0131_
*178 _0132_
*179 _0133_
*180 _0134_
*181 _0135_
*182 _0136_
*183 _0137_
*184 _0138_
*185 _0139_
*186 _0140_
*187 _0141_
*188 _0142_
*189 _0143_
*190 _0144_
*191 _0145_
*192 _0146_
*193 _0147_
*194 _0148_
*195 _0149_
*196 _0150_
*197 _0151_
*198 _0152_
*199 _0153_
*200 _0154_
*201 _0155_
*202 _0156_
*203 _0157_
*204 _0158_
*205 _0159_
*206 _0160_
*207 _0161_
*208 _0162_
*209 _0163_
*210 _0164_
*211 _0165_
*212 _0166_
*213 _0167_
*214 _0168_
*215 _0169_
*216 _0170_
*217 _0171_
*218 _0172_
*219 _0173_
*220 _0174_
*221 _0175_
*222 _0176_
*223 _0177_
*224 _0178_
*225 _0179_
*226 _0180_
*227 _0181_
*228 _0182_
*229 _0183_
*230 _0184_
*231 _0185_
*232 _0186_
*233 _0187_
*234 _0188_
*235 _0189_
*236 _0190_
*237 _0191_
*238 _0192_
*239 _0193_
*240 _0194_
*241 _0195_
*242 _0196_
*243 _0197_
*244 _0198_
*245 _0199_
*246 _0200_
*247 _0201_
*248 _0202_
*249 _0203_
*250 _0204_
*251 _0205_
*252 _0206_
*253 _0207_
*254 _0208_
*255 _0209_
*256 _0210_
*257 _0211_
*258 _0212_
*259 _0213_
*260 _0214_
*261 _0215_
*262 _0216_
*263 _0217_
*264 _0218_
*265 _0219_
*266 _0220_
*267 _0221_
*268 _0222_
*269 _0223_
*270 _0224_
*271 _0225_
*272 _0226_
*273 _0227_
*274 _0228_
*275 _0229_
*276 _0230_
*277 _0231_
*278 _0232_
*279 _0233_
*280 _0234_
*281 _0235_
*282 _0236_
*283 _0237_
*284 _0238_
*285 _0239_
*286 _0240_
*287 _0241_
*288 _0242_
*289 _0243_
*290 _0244_
*291 _0245_
*292 _0246_
*293 _0247_
*294 _0248_
*295 _0249_
*296 _0250_
*297 _0251_
*298 _0252_
*299 _0253_
*300 _0254_
*301 _0255_
*302 _0256_
*303 _0257_
*304 _0258_
*305 _0259_
*306 _0260_
*307 _0261_
*308 _0262_
*309 _0263_
*310 _0264_
*311 _0265_
*312 _0266_
*313 _0267_
*314 _0268_
*315 _0269_
*316 _0270_
*317 _0271_
*318 _0272_
*319 _0273_
*320 _0274_
*321 _0275_
*322 _0276_
*323 _0277_
*324 _0278_
*325 _0279_
*326 _0280_
*327 _0281_
*328 _0282_
*329 _0283_
*330 _0284_
*331 _0285_
*332 _0286_
*333 _0287_
*334 _0288_
*335 _0289_
*336 _0290_
*337 _0291_
*338 _0292_
*339 _0293_
*340 _0294_
*341 _0295_
*342 _0296_
*343 _0297_
*344 _0298_
*345 _0299_
*346 _0300_
*347 _0301_
*348 _0302_
*349 _0303_
*350 _0304_
*351 _0305_
*352 _0306_
*353 _0307_
*354 _0308_
*355 _0309_
*356 _0310_
*357 _0311_
*358 _0312_
*359 _0313_
*360 _0314_
*361 _0315_
*362 _0316_
*363 _0317_
*364 _0318_
*365 _0319_
*366 _0320_
*367 _0321_
*368 _0322_
*369 _0323_
*370 _0324_
*371 _0325_
*372 _0326_
*373 _0327_
*374 _0328_
*375 _0329_
*376 _0330_
*377 _0331_
*378 _0332_
*379 _0333_
*380 _0334_
*381 _0335_
*382 _0336_
*383 _0337_
*384 _0338_
*385 _0339_
*386 _0340_
*387 _0341_
*388 _0342_
*389 _0343_
*390 _0344_
*391 _0345_
*392 _0346_
*393 _0347_
*394 _0348_
*395 _0349_
*396 _0350_
*397 _0351_
*398 _0352_
*399 _0353_
*400 _0354_
*401 _0355_
*402 _0356_
*403 _0357_
*404 _0358_
*405 _0359_
*406 _0360_
*407 _0361_
*408 _0362_
*409 _0363_
*410 _0364_
*411 _0365_
*412 _0366_
*413 _0367_
*414 _0368_
*415 _0369_
*416 _0370_
*417 _0371_
*418 _0372_
*419 _0373_
*420 _0374_
*421 _0375_
*422 _0376_
*423 _0377_
*424 _0378_
*425 _0379_
*426 _0380_
*427 _0381_
*428 _0382_
*429 _0383_
*430 _0384_
*431 _0385_
*432 _0386_
*433 _0387_
*434 _0388_
*435 _0389_
*436 _0390_
*437 _0391_
*438 _0392_
*439 _0393_
*440 _0394_
*441 _0395_
*442 _0396_
*443 _0397_
*444 _0398_
*445 _0399_
*446 _0400_
*447 _0401_
*448 _0402_
*449 _0403_
*450 _0404_
*451 _0405_
*452 _0406_
*453 _0407_
*454 _0408_
*455 _0409_
*456 _0410_
*457 _0411_
*458 _0412_
*459 _0413_
*460 _0414_
*461 _0415_
*462 _0416_
*463 _0417_
*464 _0418_
*465 _0419_
*466 _0420_
*467 _0421_
*468 _0422_
*469 _0423_
*470 _0424_
*471 _0425_
*472 _0426_
*473 _0427_
*474 _0428_
*475 _0429_
*476 _0430_
*477 _0431_
*478 _0432_
*479 _0433_
*480 _0434_
*481 _0435_
*482 _0436_
*483 _0437_
*484 _0438_
*485 _0439_
*486 _0440_
*487 _0441_
*488 _0442_
*489 _0443_
*490 _0444_
*491 _0445_
*492 _0446_
*493 _0447_
*494 _0448_
*495 _0449_
*496 _0450_
*497 _0451_
*498 _0452_
*499 _0453_
*500 _0454_
*501 _0455_
*502 _0456_
*503 _0457_
*504 _0458_
*505 _0459_
*506 _0460_
*507 _0461_
*508 _0462_
*509 _0463_
*510 _0464_
*511 _0465_
*512 _0466_
*513 _0467_
*514 _0468_
*515 _0469_
*516 _0470_
*517 _0471_
*518 _0472_
*519 _0473_
*520 _0474_
*521 _0475_
*522 _0476_
*523 _0477_
*524 _0478_
*525 _0479_
*526 _0480_
*527 _0481_
*528 _0482_
*529 _0483_
*530 _0484_
*531 _0485_
*532 _0486_
*533 _0487_
*534 _0488_
*535 _0489_
*536 _0490_
*537 _0491_
*538 _0492_
*539 _0493_
*540 _0494_
*541 _0495_
*542 _0496_
*543 _0497_
*544 _0498_
*545 _0499_
*546 _0500_
*547 _0501_
*548 _0502_
*549 _0503_
*550 _0504_
*551 _0505_
*552 _0506_
*553 _0507_
*554 _0508_
*555 _0509_
*556 _0510_
*557 _0511_
*558 _0512_
*559 _0513_
*560 _0514_
*561 _0515_
*562 _0516_
*563 _0517_
*564 _0518_
*565 _0519_
*566 _0520_
*567 _0521_
*568 _0522_
*569 _0523_
*570 _0524_
*571 _0525_
*572 _0526_
*573 _0527_
*574 _0528_
*575 _0529_
*576 _0530_
*577 _0531_
*578 _0532_
*579 _0533_
*580 _0534_
*581 _0535_
*582 _0536_
*583 _0537_
*584 _0538_
*585 _0539_
*586 _0540_
*587 _0541_
*588 _0542_
*589 _0543_
*590 _0544_
*591 _0545_
*592 _0546_
*593 _0547_
*594 _0548_
*595 _0549_
*596 _0550_
*597 _0551_
*598 _0552_
*599 _0553_
*600 _0554_
*601 _0555_
*602 _0556_
*603 _0557_
*604 _0558_
*605 _0559_
*606 _0560_
*607 _0561_
*608 _0562_
*609 _0563_
*610 _0564_
*611 _0565_
*612 _0566_
*613 _0567_
*614 _0568_
*615 _0569_
*616 _0570_
*617 _0571_
*618 _0572_
*619 _0573_
*620 _0574_
*621 _0575_
*622 _0576_
*623 _0577_
*624 _0578_
*625 _0579_
*626 _0580_
*627 _0581_
*628 _0582_
*629 _0583_
*630 _0584_
*631 _0585_
*632 _0586_
*633 _0587_
*634 _0588_
*635 _0589_
*636 _0590_
*637 _0591_
*638 _0592_
*639 _0593_
*640 _0594_
*641 _0595_
*642 _0596_
*643 _0597_
*644 _0598_
*645 _0599_
*646 _0600_
*647 _0601_
*648 _0602_
*649 _0603_
*650 _0604_
*651 _0605_
*652 _0606_
*653 _0607_
*654 _0608_
*655 _0609_
*656 _0610_
*657 _0611_
*658 _0612_
*659 _0613_
*660 _0614_
*661 _0615_
*662 _0616_
*663 _0617_
*664 _0618_
*665 _0619_
*666 _0620_
*667 _0621_
*668 _0622_
*669 _0623_
*670 _0624_
*671 _0625_
*672 _0626_
*673 _0627_
*674 _0628_
*675 _0629_
*676 _0630_
*677 _0631_
*678 _0632_
*679 _0633_
*680 _0634_
*681 _0635_
*682 _0636_
*683 _0637_
*684 _0638_
*685 _0639_
*686 _0640_
*687 _0641_
*688 _0642_
*689 _0643_
*690 _0644_
*691 _0645_
*692 _0646_
*693 _0647_
*694 _0648_
*695 _0649_
*696 _0650_
*697 _0651_
*698 _0652_
*699 _0653_
*700 _0654_
*701 _0655_
*702 _0656_
*703 _0657_
*704 _0658_
*705 _0659_
*706 _0660_
*707 _0661_
*708 _0662_
*709 _0663_
*710 _0664_
*711 _0665_
*712 _0666_
*713 _0667_
*714 _0668_
*715 _0669_
*716 _0670_
*717 _0671_
*718 _0672_
*719 _0673_
*720 _0674_
*721 _0675_
*722 _0676_
*723 _0677_
*724 _0678_
*725 _0679_
*726 _0680_
*727 _0681_
*728 _0682_
*729 _0683_
*730 _0684_
*731 _0685_
*732 _0686_
*733 _0687_
*734 _0688_
*735 _0689_
*736 _0690_
*737 _0691_
*738 _0692_
*739 _0693_
*740 _0694_
*741 _0695_
*742 _0696_
*743 _0697_
*744 _0698_
*745 _0699_
*746 _0700_
*747 _0701_
*748 _0702_
*749 _0703_
*750 _0704_
*751 _0705_
*752 _0706_
*753 _0707_
*754 _0708_
*755 _0709_
*756 _0710_
*757 _0711_
*758 _0712_
*759 _0713_
*760 _0714_
*761 _0715_
*762 _0716_
*763 _0717_
*764 _0718_
*765 _0719_
*766 _0720_
*767 _0721_
*768 _0722_
*769 _0723_
*770 _0724_
*771 _0725_
*772 _0726_
*773 _0727_
*774 _0728_
*775 _0729_
*776 _0730_
*777 _0731_
*778 _0732_
*779 _0733_
*780 _0734_
*781 _0735_
*782 _0736_
*783 _0737_
*784 _0738_
*785 _0739_
*786 _0740_
*787 _0741_
*788 _0742_
*789 _0743_
*790 _0744_
*791 _0745_
*792 _0746_
*793 _0747_
*794 _0748_
*795 _0749_
*796 _0750_
*797 _0751_
*798 _0752_
*799 _0753_
*800 _0754_
*801 _0755_
*802 _0756_
*803 _0757_
*804 _0758_
*805 _0759_
*806 _0760_
*807 _0761_
*808 _0762_
*809 _0763_
*810 _0764_
*811 _0765_
*812 _0766_
*813 _0767_
*814 _0768_
*815 _0769_
*816 _0770_
*817 _0771_
*818 _0772_
*819 _0773_
*820 _0774_
*821 _0775_
*822 _0776_
*823 _0777_
*824 _0778_
*825 _0779_
*826 _0780_
*827 _0781_
*828 _0782_
*829 _0783_
*830 _0784_
*831 _0785_
*832 _0786_
*833 _0787_
*834 _0788_
*835 _0789_
*836 _0790_
*837 _0791_
*838 _0792_
*839 _0793_
*840 _0794_
*841 _0795_
*842 _0796_
*843 _0797_
*844 _0798_
*845 _0799_
*846 _0800_
*847 _0801_
*848 _0802_
*849 _0803_
*850 _0804_
*851 _0805_
*852 _0806_
*853 _0807_
*854 _0808_
*855 _0809_
*856 _0810_
*857 _0811_
*858 _0812_
*859 _0813_
*860 _0814_
*861 _0815_
*862 _0816_
*863 _0817_
*864 _0818_
*865 _0819_
*866 _0820_
*867 _0821_
*868 _0822_
*869 _0823_
*870 _0824_
*871 _0825_
*872 _0826_
*873 _0827_
*874 _0828_
*875 _0829_
*876 _0830_
*877 _0831_
*878 _0832_
*879 _0833_
*880 _0834_
*881 _0835_
*882 _0836_
*883 _0837_
*884 _0838_
*885 _0839_
*886 _0840_
*887 _0841_
*888 _0842_
*889 _0843_
*890 _0844_
*891 _0845_
*892 _0846_
*893 _0847_
*894 _0848_
*895 _0849_
*896 _0850_
*897 _0851_
*898 _0852_
*899 _0853_
*900 _0854_
*901 _0855_
*902 clknet_0_clk
*903 clknet_1_0__leaf_clk
*904 clknet_1_1__leaf_clk
*905 clknet_leaf_0_clk
*906 clknet_leaf_10_clk
*907 clknet_leaf_11_clk
*908 clknet_leaf_12_clk
*909 clknet_leaf_13_clk
*910 clknet_leaf_14_clk
*911 clknet_leaf_1_clk
*912 clknet_leaf_2_clk
*913 clknet_leaf_3_clk
*914 clknet_leaf_4_clk
*915 clknet_leaf_5_clk
*916 clknet_leaf_6_clk
*917 clknet_leaf_7_clk
*918 clknet_leaf_8_clk
*919 clknet_leaf_9_clk
*920 dual_deque_instance\.d0_empty
*921 dual_deque_instance\.d0_full
*922 dual_deque_instance\.d1_empty
*923 dual_deque_instance\.d1_full
*924 dual_deque_instance\.deque0\.DEQUE\[0\]\[0\]
*925 dual_deque_instance\.deque0\.DEQUE\[0\]\[1\]
*926 dual_deque_instance\.deque0\.DEQUE\[0\]\[2\]
*927 dual_deque_instance\.deque0\.DEQUE\[0\]\[3\]
*928 dual_deque_instance\.deque0\.DEQUE\[0\]\[4\]
*929 dual_deque_instance\.deque0\.DEQUE\[0\]\[5\]
*930 dual_deque_instance\.deque0\.DEQUE\[0\]\[6\]
*931 dual_deque_instance\.deque0\.DEQUE\[0\]\[7\]
*932 dual_deque_instance\.deque0\.DEQUE\[10\]\[0\]
*933 dual_deque_instance\.deque0\.DEQUE\[10\]\[1\]
*934 dual_deque_instance\.deque0\.DEQUE\[10\]\[2\]
*935 dual_deque_instance\.deque0\.DEQUE\[10\]\[3\]
*936 dual_deque_instance\.deque0\.DEQUE\[10\]\[4\]
*937 dual_deque_instance\.deque0\.DEQUE\[10\]\[5\]
*938 dual_deque_instance\.deque0\.DEQUE\[10\]\[6\]
*939 dual_deque_instance\.deque0\.DEQUE\[10\]\[7\]
*940 dual_deque_instance\.deque0\.DEQUE\[11\]\[0\]
*941 dual_deque_instance\.deque0\.DEQUE\[11\]\[1\]
*942 dual_deque_instance\.deque0\.DEQUE\[11\]\[2\]
*943 dual_deque_instance\.deque0\.DEQUE\[11\]\[3\]
*944 dual_deque_instance\.deque0\.DEQUE\[11\]\[4\]
*945 dual_deque_instance\.deque0\.DEQUE\[11\]\[5\]
*946 dual_deque_instance\.deque0\.DEQUE\[11\]\[6\]
*947 dual_deque_instance\.deque0\.DEQUE\[11\]\[7\]
*948 dual_deque_instance\.deque0\.DEQUE\[12\]\[0\]
*949 dual_deque_instance\.deque0\.DEQUE\[12\]\[1\]
*950 dual_deque_instance\.deque0\.DEQUE\[12\]\[2\]
*951 dual_deque_instance\.deque0\.DEQUE\[12\]\[3\]
*952 dual_deque_instance\.deque0\.DEQUE\[12\]\[4\]
*953 dual_deque_instance\.deque0\.DEQUE\[12\]\[5\]
*954 dual_deque_instance\.deque0\.DEQUE\[12\]\[6\]
*955 dual_deque_instance\.deque0\.DEQUE\[12\]\[7\]
*956 dual_deque_instance\.deque0\.DEQUE\[13\]\[0\]
*957 dual_deque_instance\.deque0\.DEQUE\[13\]\[1\]
*958 dual_deque_instance\.deque0\.DEQUE\[13\]\[2\]
*959 dual_deque_instance\.deque0\.DEQUE\[13\]\[3\]
*960 dual_deque_instance\.deque0\.DEQUE\[13\]\[4\]
*961 dual_deque_instance\.deque0\.DEQUE\[13\]\[5\]
*962 dual_deque_instance\.deque0\.DEQUE\[13\]\[6\]
*963 dual_deque_instance\.deque0\.DEQUE\[13\]\[7\]
*964 dual_deque_instance\.deque0\.DEQUE\[14\]\[0\]
*965 dual_deque_instance\.deque0\.DEQUE\[14\]\[1\]
*966 dual_deque_instance\.deque0\.DEQUE\[14\]\[2\]
*967 dual_deque_instance\.deque0\.DEQUE\[14\]\[3\]
*968 dual_deque_instance\.deque0\.DEQUE\[14\]\[4\]
*969 dual_deque_instance\.deque0\.DEQUE\[14\]\[5\]
*970 dual_deque_instance\.deque0\.DEQUE\[14\]\[6\]
*971 dual_deque_instance\.deque0\.DEQUE\[14\]\[7\]
*972 dual_deque_instance\.deque0\.DEQUE\[15\]\[0\]
*973 dual_deque_instance\.deque0\.DEQUE\[15\]\[1\]
*974 dual_deque_instance\.deque0\.DEQUE\[15\]\[2\]
*975 dual_deque_instance\.deque0\.DEQUE\[15\]\[3\]
*976 dual_deque_instance\.deque0\.DEQUE\[15\]\[4\]
*977 dual_deque_instance\.deque0\.DEQUE\[15\]\[5\]
*978 dual_deque_instance\.deque0\.DEQUE\[15\]\[6\]
*979 dual_deque_instance\.deque0\.DEQUE\[15\]\[7\]
*980 dual_deque_instance\.deque0\.DEQUE\[1\]\[0\]
*981 dual_deque_instance\.deque0\.DEQUE\[1\]\[1\]
*982 dual_deque_instance\.deque0\.DEQUE\[1\]\[2\]
*983 dual_deque_instance\.deque0\.DEQUE\[1\]\[3\]
*984 dual_deque_instance\.deque0\.DEQUE\[1\]\[4\]
*985 dual_deque_instance\.deque0\.DEQUE\[1\]\[5\]
*986 dual_deque_instance\.deque0\.DEQUE\[1\]\[6\]
*987 dual_deque_instance\.deque0\.DEQUE\[1\]\[7\]
*988 dual_deque_instance\.deque0\.DEQUE\[2\]\[0\]
*989 dual_deque_instance\.deque0\.DEQUE\[2\]\[1\]
*990 dual_deque_instance\.deque0\.DEQUE\[2\]\[2\]
*991 dual_deque_instance\.deque0\.DEQUE\[2\]\[3\]
*992 dual_deque_instance\.deque0\.DEQUE\[2\]\[4\]
*993 dual_deque_instance\.deque0\.DEQUE\[2\]\[5\]
*994 dual_deque_instance\.deque0\.DEQUE\[2\]\[6\]
*995 dual_deque_instance\.deque0\.DEQUE\[2\]\[7\]
*996 dual_deque_instance\.deque0\.DEQUE\[3\]\[0\]
*997 dual_deque_instance\.deque0\.DEQUE\[3\]\[1\]
*998 dual_deque_instance\.deque0\.DEQUE\[3\]\[2\]
*999 dual_deque_instance\.deque0\.DEQUE\[3\]\[3\]
*1000 dual_deque_instance\.deque0\.DEQUE\[3\]\[4\]
*1001 dual_deque_instance\.deque0\.DEQUE\[3\]\[5\]
*1002 dual_deque_instance\.deque0\.DEQUE\[3\]\[6\]
*1003 dual_deque_instance\.deque0\.DEQUE\[3\]\[7\]
*1004 dual_deque_instance\.deque0\.DEQUE\[4\]\[0\]
*1005 dual_deque_instance\.deque0\.DEQUE\[4\]\[1\]
*1006 dual_deque_instance\.deque0\.DEQUE\[4\]\[2\]
*1007 dual_deque_instance\.deque0\.DEQUE\[4\]\[3\]
*1008 dual_deque_instance\.deque0\.DEQUE\[4\]\[4\]
*1009 dual_deque_instance\.deque0\.DEQUE\[4\]\[5\]
*1010 dual_deque_instance\.deque0\.DEQUE\[4\]\[6\]
*1011 dual_deque_instance\.deque0\.DEQUE\[4\]\[7\]
*1012 dual_deque_instance\.deque0\.DEQUE\[5\]\[0\]
*1013 dual_deque_instance\.deque0\.DEQUE\[5\]\[1\]
*1014 dual_deque_instance\.deque0\.DEQUE\[5\]\[2\]
*1015 dual_deque_instance\.deque0\.DEQUE\[5\]\[3\]
*1016 dual_deque_instance\.deque0\.DEQUE\[5\]\[4\]
*1017 dual_deque_instance\.deque0\.DEQUE\[5\]\[5\]
*1018 dual_deque_instance\.deque0\.DEQUE\[5\]\[6\]
*1019 dual_deque_instance\.deque0\.DEQUE\[5\]\[7\]
*1020 dual_deque_instance\.deque0\.DEQUE\[6\]\[0\]
*1021 dual_deque_instance\.deque0\.DEQUE\[6\]\[1\]
*1022 dual_deque_instance\.deque0\.DEQUE\[6\]\[2\]
*1023 dual_deque_instance\.deque0\.DEQUE\[6\]\[3\]
*1024 dual_deque_instance\.deque0\.DEQUE\[6\]\[4\]
*1025 dual_deque_instance\.deque0\.DEQUE\[6\]\[5\]
*1026 dual_deque_instance\.deque0\.DEQUE\[6\]\[6\]
*1027 dual_deque_instance\.deque0\.DEQUE\[6\]\[7\]
*1028 dual_deque_instance\.deque0\.DEQUE\[7\]\[0\]
*1029 dual_deque_instance\.deque0\.DEQUE\[7\]\[1\]
*1030 dual_deque_instance\.deque0\.DEQUE\[7\]\[2\]
*1031 dual_deque_instance\.deque0\.DEQUE\[7\]\[3\]
*1032 dual_deque_instance\.deque0\.DEQUE\[7\]\[4\]
*1033 dual_deque_instance\.deque0\.DEQUE\[7\]\[5\]
*1034 dual_deque_instance\.deque0\.DEQUE\[7\]\[6\]
*1035 dual_deque_instance\.deque0\.DEQUE\[7\]\[7\]
*1036 dual_deque_instance\.deque0\.DEQUE\[8\]\[0\]
*1037 dual_deque_instance\.deque0\.DEQUE\[8\]\[1\]
*1038 dual_deque_instance\.deque0\.DEQUE\[8\]\[2\]
*1039 dual_deque_instance\.deque0\.DEQUE\[8\]\[3\]
*1040 dual_deque_instance\.deque0\.DEQUE\[8\]\[4\]
*1041 dual_deque_instance\.deque0\.DEQUE\[8\]\[5\]
*1042 dual_deque_instance\.deque0\.DEQUE\[8\]\[6\]
*1043 dual_deque_instance\.deque0\.DEQUE\[8\]\[7\]
*1044 dual_deque_instance\.deque0\.DEQUE\[9\]\[0\]
*1045 dual_deque_instance\.deque0\.DEQUE\[9\]\[1\]
*1046 dual_deque_instance\.deque0\.DEQUE\[9\]\[2\]
*1047 dual_deque_instance\.deque0\.DEQUE\[9\]\[3\]
*1048 dual_deque_instance\.deque0\.DEQUE\[9\]\[4\]
*1049 dual_deque_instance\.deque0\.DEQUE\[9\]\[5\]
*1050 dual_deque_instance\.deque0\.DEQUE\[9\]\[6\]
*1051 dual_deque_instance\.deque0\.DEQUE\[9\]\[7\]
*1052 dual_deque_instance\.deque0\.back_wr\[0\]
*1053 dual_deque_instance\.deque0\.back_wr\[1\]
*1054 dual_deque_instance\.deque0\.back_wr\[2\]
*1055 dual_deque_instance\.deque0\.back_wr\[3\]
*1056 dual_deque_instance\.deque0\.ds
*1057 dual_deque_instance\.deque0\.es
*1058 dual_deque_instance\.deque0\.front_wr\[0\]
*1059 dual_deque_instance\.deque0\.front_wr\[1\]
*1060 dual_deque_instance\.deque0\.front_wr\[2\]
*1061 dual_deque_instance\.deque0\.front_wr\[3\]
*1062 dual_deque_instance\.deque1\.DEQUE\[0\]\[0\]
*1063 dual_deque_instance\.deque1\.DEQUE\[0\]\[1\]
*1064 dual_deque_instance\.deque1\.DEQUE\[0\]\[2\]
*1065 dual_deque_instance\.deque1\.DEQUE\[0\]\[3\]
*1066 dual_deque_instance\.deque1\.DEQUE\[0\]\[4\]
*1067 dual_deque_instance\.deque1\.DEQUE\[0\]\[5\]
*1068 dual_deque_instance\.deque1\.DEQUE\[0\]\[6\]
*1069 dual_deque_instance\.deque1\.DEQUE\[0\]\[7\]
*1070 dual_deque_instance\.deque1\.DEQUE\[1\]\[0\]
*1071 dual_deque_instance\.deque1\.DEQUE\[1\]\[1\]
*1072 dual_deque_instance\.deque1\.DEQUE\[1\]\[2\]
*1073 dual_deque_instance\.deque1\.DEQUE\[1\]\[3\]
*1074 dual_deque_instance\.deque1\.DEQUE\[1\]\[4\]
*1075 dual_deque_instance\.deque1\.DEQUE\[1\]\[5\]
*1076 dual_deque_instance\.deque1\.DEQUE\[1\]\[6\]
*1077 dual_deque_instance\.deque1\.DEQUE\[1\]\[7\]
*1078 dual_deque_instance\.deque1\.DEQUE\[2\]\[0\]
*1079 dual_deque_instance\.deque1\.DEQUE\[2\]\[1\]
*1080 dual_deque_instance\.deque1\.DEQUE\[2\]\[2\]
*1081 dual_deque_instance\.deque1\.DEQUE\[2\]\[3\]
*1082 dual_deque_instance\.deque1\.DEQUE\[2\]\[4\]
*1083 dual_deque_instance\.deque1\.DEQUE\[2\]\[5\]
*1084 dual_deque_instance\.deque1\.DEQUE\[2\]\[6\]
*1085 dual_deque_instance\.deque1\.DEQUE\[2\]\[7\]
*1086 dual_deque_instance\.deque1\.DEQUE\[3\]\[0\]
*1087 dual_deque_instance\.deque1\.DEQUE\[3\]\[1\]
*1088 dual_deque_instance\.deque1\.DEQUE\[3\]\[2\]
*1089 dual_deque_instance\.deque1\.DEQUE\[3\]\[3\]
*1090 dual_deque_instance\.deque1\.DEQUE\[3\]\[4\]
*1091 dual_deque_instance\.deque1\.DEQUE\[3\]\[5\]
*1092 dual_deque_instance\.deque1\.DEQUE\[3\]\[6\]
*1093 dual_deque_instance\.deque1\.DEQUE\[3\]\[7\]
*1094 dual_deque_instance\.deque1\.DEQUE\[4\]\[0\]
*1095 dual_deque_instance\.deque1\.DEQUE\[4\]\[1\]
*1096 dual_deque_instance\.deque1\.DEQUE\[4\]\[2\]
*1097 dual_deque_instance\.deque1\.DEQUE\[4\]\[3\]
*1098 dual_deque_instance\.deque1\.DEQUE\[4\]\[4\]
*1099 dual_deque_instance\.deque1\.DEQUE\[4\]\[5\]
*1100 dual_deque_instance\.deque1\.DEQUE\[4\]\[6\]
*1101 dual_deque_instance\.deque1\.DEQUE\[4\]\[7\]
*1102 dual_deque_instance\.deque1\.DEQUE\[5\]\[0\]
*1103 dual_deque_instance\.deque1\.DEQUE\[5\]\[1\]
*1104 dual_deque_instance\.deque1\.DEQUE\[5\]\[2\]
*1105 dual_deque_instance\.deque1\.DEQUE\[5\]\[3\]
*1106 dual_deque_instance\.deque1\.DEQUE\[5\]\[4\]
*1107 dual_deque_instance\.deque1\.DEQUE\[5\]\[5\]
*1108 dual_deque_instance\.deque1\.DEQUE\[5\]\[6\]
*1109 dual_deque_instance\.deque1\.DEQUE\[5\]\[7\]
*1110 dual_deque_instance\.deque1\.DEQUE\[6\]\[0\]
*1111 dual_deque_instance\.deque1\.DEQUE\[6\]\[1\]
*1112 dual_deque_instance\.deque1\.DEQUE\[6\]\[2\]
*1113 dual_deque_instance\.deque1\.DEQUE\[6\]\[3\]
*1114 dual_deque_instance\.deque1\.DEQUE\[6\]\[4\]
*1115 dual_deque_instance\.deque1\.DEQUE\[6\]\[5\]
*1116 dual_deque_instance\.deque1\.DEQUE\[6\]\[6\]
*1117 dual_deque_instance\.deque1\.DEQUE\[6\]\[7\]
*1118 dual_deque_instance\.deque1\.DEQUE\[7\]\[0\]
*1119 dual_deque_instance\.deque1\.DEQUE\[7\]\[1\]
*1120 dual_deque_instance\.deque1\.DEQUE\[7\]\[2\]
*1121 dual_deque_instance\.deque1\.DEQUE\[7\]\[3\]
*1122 dual_deque_instance\.deque1\.DEQUE\[7\]\[4\]
*1123 dual_deque_instance\.deque1\.DEQUE\[7\]\[5\]
*1124 dual_deque_instance\.deque1\.DEQUE\[7\]\[6\]
*1125 dual_deque_instance\.deque1\.DEQUE\[7\]\[7\]
*1126 dual_deque_instance\.deque1\.back_wr\[0\]
*1127 dual_deque_instance\.deque1\.back_wr\[1\]
*1128 dual_deque_instance\.deque1\.back_wr\[2\]
*1129 dual_deque_instance\.deque1\.ds
*1130 dual_deque_instance\.deque1\.front_wr\[0\]
*1131 dual_deque_instance\.deque1\.front_wr\[1\]
*1132 dual_deque_instance\.deque1\.front_wr\[2\]
*1133 net1
*1134 net10
*1135 net100
*1136 net101
*1137 net102
*1138 net103
*1139 net104
*1140 net105
*1141 net106
*1142 net107
*1143 net108
*1144 net109
*1145 net11
*1146 net110
*1147 net111
*1148 net112
*1149 net113
*1150 net114
*1151 net115
*1152 net116
*1153 net117
*1154 net118
*1155 net119
*1156 net12
*1157 net120
*1158 net121
*1159 net122
*1160 net123
*1161 net124
*1162 net125
*1163 net126
*1164 net127
*1165 net128
*1166 net129
*1167 net13
*1168 net130
*1169 net131
*1170 net132
*1171 net133
*1172 net134
*1173 net135
*1174 net136
*1175 net137
*1176 net138
*1177 net139
*1178 net14
*1179 net140
*1180 net141
*1181 net142
*1182 net143
*1183 net144
*1184 net15
*1185 net2
*1186 net28
*1187 net29
*1188 net3
*1189 net30
*1190 net31
*1191 net32
*1192 net33
*1193 net34
*1194 net35
*1195 net36
*1196 net37
*1197 net38
*1198 net39
*1199 net4
*1200 net40
*1201 net41
*1202 net42
*1203 net43
*1204 net44
*1205 net45
*1206 net46
*1207 net47
*1208 net48
*1209 net49
*1210 net5
*1211 net50
*1212 net51
*1213 net52
*1214 net53
*1215 net54
*1216 net55
*1217 net56
*1218 net57
*1219 net58
*1220 net59
*1221 net6
*1222 net60
*1223 net61
*1224 net62
*1225 net63
*1226 net64
*1227 net65
*1228 net66
*1229 net67
*1230 net68
*1231 net69
*1232 net7
*1233 net70
*1234 net71
*1235 net72
*1236 net73
*1237 net74
*1238 net75
*1239 net76
*1240 net77
*1241 net78
*1242 net79
*1243 net8
*1244 net80
*1245 net81
*1246 net82
*1247 net83
*1248 net84
*1249 net85
*1250 net86
*1251 net87
*1252 net88
*1253 net89
*1254 net9
*1255 net90
*1256 net91
*1257 net92
*1258 net93
*1259 net94
*1260 net95
*1261 net96
*1262 net97
*1263 net98
*1264 net99
*1265 ANTENNA_1
*1266 ANTENNA_2
*1267 ANTENNA_3
*1268 ANTENNA_4
*1269 ANTENNA_5
*1270 ANTENNA_6
*1271 FILLER_0_0_103
*1272 FILLER_0_0_111
*1273 FILLER_0_0_113
*1274 FILLER_0_0_129
*1275 FILLER_0_0_136
*1276 FILLER_0_0_15
*1277 FILLER_0_0_150
*1278 FILLER_0_0_172
*1279 FILLER_0_0_176
*1280 FILLER_0_0_186
*1281 FILLER_0_0_202
*1282 FILLER_0_0_210
*1283 FILLER_0_0_220
*1284 FILLER_0_0_225
*1285 FILLER_0_0_242
*1286 FILLER_0_0_250
*1287 FILLER_0_0_262
*1288 FILLER_0_0_27
*1289 FILLER_0_0_281
*1290 FILLER_0_0_29
*1291 FILLER_0_0_299
*1292 FILLER_0_0_3
*1293 FILLER_0_0_307
*1294 FILLER_0_0_325
*1295 FILLER_0_0_333
*1296 FILLER_0_0_60
*1297 FILLER_0_0_85
*1298 FILLER_0_10_108
*1299 FILLER_0_10_11
*1300 FILLER_0_10_132
*1301 FILLER_0_10_139
*1302 FILLER_0_10_147
*1303 FILLER_0_10_167
*1304 FILLER_0_10_227
*1305 FILLER_0_10_262
*1306 FILLER_0_10_285
*1307 FILLER_0_10_29
*1308 FILLER_0_10_3
*1309 FILLER_0_10_309
*1310 FILLER_0_10_85
*1311 FILLER_0_11_110
*1312 FILLER_0_11_113
*1313 FILLER_0_11_166
*1314 FILLER_0_11_169
*1315 FILLER_0_11_181
*1316 FILLER_0_11_19
*1317 FILLER_0_11_194
*1318 FILLER_0_11_198
*1319 FILLER_0_11_234
*1320 FILLER_0_11_245
*1321 FILLER_0_11_278
*1322 FILLER_0_11_281
*1323 FILLER_0_11_65
*1324 FILLER_0_11_77
*1325 FILLER_0_12_100
*1326 FILLER_0_12_117
*1327 FILLER_0_12_123
*1328 FILLER_0_12_133
*1329 FILLER_0_12_15
*1330 FILLER_0_12_154
*1331 FILLER_0_12_188
*1332 FILLER_0_12_213
*1333 FILLER_0_12_242
*1334 FILLER_0_12_249
*1335 FILLER_0_12_269
*1336 FILLER_0_12_3
*1337 FILLER_0_12_37
*1338 FILLER_0_12_45
*1339 FILLER_0_12_61
*1340 FILLER_0_12_75
*1341 FILLER_0_12_85
*1342 FILLER_0_13_169
*1343 FILLER_0_13_19
*1344 FILLER_0_13_195
*1345 FILLER_0_13_218
*1346 FILLER_0_13_234
*1347 FILLER_0_13_262
*1348 FILLER_0_13_302
*1349 FILLER_0_13_36
*1350 FILLER_0_13_55
*1351 FILLER_0_13_72
*1352 FILLER_0_13_94
*1353 FILLER_0_14_105
*1354 FILLER_0_14_114
*1355 FILLER_0_14_124
*1356 FILLER_0_14_134
*1357 FILLER_0_14_150
*1358 FILLER_0_14_163
*1359 FILLER_0_14_182
*1360 FILLER_0_14_186
*1361 FILLER_0_14_206
*1362 FILLER_0_14_262
*1363 FILLER_0_14_291
*1364 FILLER_0_14_3
*1365 FILLER_0_14_332
*1366 FILLER_0_14_49
*1367 FILLER_0_14_67
*1368 FILLER_0_14_7
*1369 FILLER_0_14_83
*1370 FILLER_0_14_90
*1371 FILLER_0_15_11
*1372 FILLER_0_15_111
*1373 FILLER_0_15_113
*1374 FILLER_0_15_135
*1375 FILLER_0_15_161
*1376 FILLER_0_15_167
*1377 FILLER_0_15_190
*1378 FILLER_0_15_201
*1379 FILLER_0_15_262
*1380 FILLER_0_15_286
*1381 FILLER_0_15_3
*1382 FILLER_0_15_33
*1383 FILLER_0_15_55
*1384 FILLER_0_15_57
*1385 FILLER_0_15_71
*1386 FILLER_0_16_112
*1387 FILLER_0_16_135
*1388 FILLER_0_16_139
*1389 FILLER_0_16_141
*1390 FILLER_0_16_149
*1391 FILLER_0_16_152
*1392 FILLER_0_16_175
*1393 FILLER_0_16_197
*1394 FILLER_0_16_205
*1395 FILLER_0_16_229
*1396 FILLER_0_16_243
*1397 FILLER_0_16_286
*1398 FILLER_0_16_317
*1399 FILLER_0_16_334
*1400 FILLER_0_16_37
*1401 FILLER_0_16_66
*1402 FILLER_0_16_85
*1403 FILLER_0_16_92
*1404 FILLER_0_17_108
*1405 FILLER_0_17_113
*1406 FILLER_0_17_126
*1407 FILLER_0_17_151
*1408 FILLER_0_17_163
*1409 FILLER_0_17_167
*1410 FILLER_0_17_169
*1411 FILLER_0_17_180
*1412 FILLER_0_17_19
*1413 FILLER_0_17_268
*1414 FILLER_0_17_278
*1415 FILLER_0_17_311
*1416 FILLER_0_17_65
*1417 FILLER_0_18_10
*1418 FILLER_0_18_108
*1419 FILLER_0_18_119
*1420 FILLER_0_18_129
*1421 FILLER_0_18_137
*1422 FILLER_0_18_171
*1423 FILLER_0_18_175
*1424 FILLER_0_18_213
*1425 FILLER_0_18_243
*1426 FILLER_0_18_3
*1427 FILLER_0_18_307
*1428 FILLER_0_18_318
*1429 FILLER_0_18_37
*1430 FILLER_0_18_49
*1431 FILLER_0_18_61
*1432 FILLER_0_18_83
*1433 FILLER_0_18_98
*1434 FILLER_0_19_107
*1435 FILLER_0_19_134
*1436 FILLER_0_19_143
*1437 FILLER_0_19_156
*1438 FILLER_0_19_178
*1439 FILLER_0_19_207
*1440 FILLER_0_19_258
*1441 FILLER_0_19_26
*1442 FILLER_0_19_293
*1443 FILLER_0_19_44
*1444 FILLER_0_19_79
*1445 FILLER_0_19_87
*1446 FILLER_0_1_104
*1447 FILLER_0_1_108
*1448 FILLER_0_1_129
*1449 FILLER_0_1_146
*1450 FILLER_0_1_15
*1451 FILLER_0_1_169
*1452 FILLER_0_1_207
*1453 FILLER_0_1_268
*1454 FILLER_0_1_27
*1455 FILLER_0_1_279
*1456 FILLER_0_1_3
*1457 FILLER_0_1_302
*1458 FILLER_0_1_309
*1459 FILLER_0_1_324
*1460 FILLER_0_1_332
*1461 FILLER_0_1_54
*1462 FILLER_0_1_74
*1463 FILLER_0_1_80
*1464 FILLER_0_1_86
*1465 FILLER_0_20_137
*1466 FILLER_0_20_157
*1467 FILLER_0_20_180
*1468 FILLER_0_20_213
*1469 FILLER_0_20_23
*1470 FILLER_0_20_250
*1471 FILLER_0_20_253
*1472 FILLER_0_20_273
*1473 FILLER_0_20_291
*1474 FILLER_0_20_3
*1475 FILLER_0_20_317
*1476 FILLER_0_20_36
*1477 FILLER_0_20_48
*1478 FILLER_0_20_52
*1479 FILLER_0_20_60
*1480 FILLER_0_20_81
*1481 FILLER_0_20_85
*1482 FILLER_0_20_95
*1483 FILLER_0_21_134
*1484 FILLER_0_21_14
*1485 FILLER_0_21_225
*1486 FILLER_0_21_232
*1487 FILLER_0_21_251
*1488 FILLER_0_21_26
*1489 FILLER_0_21_273
*1490 FILLER_0_21_295
*1491 FILLER_0_21_3
*1492 FILLER_0_21_319
*1493 FILLER_0_21_334
*1494 FILLER_0_21_54
*1495 FILLER_0_21_62
*1496 FILLER_0_21_72
*1497 FILLER_0_21_88
*1498 FILLER_0_22_107
*1499 FILLER_0_22_115
*1500 FILLER_0_22_121
*1501 FILLER_0_22_134
*1502 FILLER_0_22_139
*1503 FILLER_0_22_141
*1504 FILLER_0_22_162
*1505 FILLER_0_22_189
*1506 FILLER_0_22_206
*1507 FILLER_0_22_245
*1508 FILLER_0_22_27
*1509 FILLER_0_22_289
*1510 FILLER_0_22_307
*1511 FILLER_0_22_309
*1512 FILLER_0_22_317
*1513 FILLER_0_22_37
*1514 FILLER_0_22_41
*1515 FILLER_0_22_49
*1516 FILLER_0_22_85
*1517 FILLER_0_23_104
*1518 FILLER_0_23_113
*1519 FILLER_0_23_162
*1520 FILLER_0_23_181
*1521 FILLER_0_23_205
*1522 FILLER_0_23_223
*1523 FILLER_0_23_225
*1524 FILLER_0_23_259
*1525 FILLER_0_23_279
*1526 FILLER_0_23_3
*1527 FILLER_0_23_50
*1528 FILLER_0_23_57
*1529 FILLER_0_23_79
*1530 FILLER_0_23_9
*1531 FILLER_0_23_94
*1532 FILLER_0_24_110
*1533 FILLER_0_24_129
*1534 FILLER_0_24_137
*1535 FILLER_0_24_148
*1536 FILLER_0_24_169
*1537 FILLER_0_24_192
*1538 FILLER_0_24_20
*1539 FILLER_0_24_243
*1540 FILLER_0_24_29
*1541 FILLER_0_24_309
*1542 FILLER_0_24_334
*1543 FILLER_0_24_41
*1544 FILLER_0_24_50
*1545 FILLER_0_24_54
*1546 FILLER_0_24_62
*1547 FILLER_0_24_85
*1548 FILLER_0_25_113
*1549 FILLER_0_25_131
*1550 FILLER_0_25_135
*1551 FILLER_0_25_177
*1552 FILLER_0_25_194
*1553 FILLER_0_25_204
*1554 FILLER_0_25_220