*SPEF "ieee 1481-1999"
*DESIGN "tt_um_sap_1"
*DATE "02:49:36 Friday April 19, 2024"
*VENDOR "The OpenROAD Project"
*PROGRAM "OpenROAD"
*VERSION "0889970d1790a2617e69f253221b8bd7626e51dc"
*DESIGN_FLOW "NAME_SCOPE LOCAL" "PIN_CAP NONE"
*DIVIDER /
*DELIMITER :
*BUS_DELIMITER []
*T_UNIT 1 NS
*C_UNIT 1 PF
*R_UNIT 1 OHM
*L_UNIT 1 HENRY

*NAME_MAP
*3 clk
*4 ena
*5 rst_n
*6 ui_in[0]
*7 ui_in[1]
*8 ui_in[2]
*9 ui_in[3]
*10 ui_in[4]
*11 ui_in[5]
*12 ui_in[6]
*13 ui_in[7]
*14 uio_in[0]
*15 uio_in[1]
*16 uio_in[2]
*17 uio_in[3]
*18 uio_in[4]
*19 uio_in[5]
*20 uio_in[6]
*21 uio_in[7]
*22 net4
*23 net5
*24 net6
*25 net7
*26 net8
*27 net9
*28 net10
*29 net11
*30 net12
*31 net13
*32 net14
*33 net15
*34 net16
*35 net17
*36 net18
*37 net19
*38 uo_out[0]
*39 uo_out[1]
*40 uo_out[2]
*41 uo_out[3]
*42 uo_out[4]
*43 uo_out[5]
*44 uo_out[6]
*45 uo_out[7]
*46 _0000_
*47 _0001_
*48 _0002_
*49 _0003_
*50 _0004_
*51 _0005_
*52 _0006_
*53 _0007_
*54 _0008_
*55 _0009_
*56 _0010_
*57 _0011_
*58 _0012_
*59 _0013_
*60 _0014_
*61 _0015_
*62 _0016_
*63 _0017_
*64 _0018_
*65 _0019_
*66 _0020_
*67 _0021_
*68 _0022_
*69 _0023_
*70 _0024_
*71 _0025_
*72 _0026_
*73 _0027_
*74 _0028_
*75 _0029_
*76 _0030_
*77 _0031_
*78 _0032_
*79 _0033_
*80 _0034_
*81 _0035_
*82 _0036_
*83 _0037_
*84 _0038_
*85 _0039_
*86 _0040_
*87 _0041_
*88 _0042_
*89 _0043_
*90 _0044_
*91 _0045_
*92 _0046_
*93 _0047_
*94 _0048_
*95 _0049_
*96 _0050_
*97 _0051_
*98 _0052_
*99 _0053_
*100 _0054_
*101 _0055_
*102 _0056_
*103 _0057_
*104 _0058_
*105 _0059_
*106 _0060_
*107 _0061_
*108 _0062_
*109 _0063_
*110 _0064_
*111 _0065_
*112 _0066_
*113 _0067_
*114 _0068_
*115 _0069_
*116 _0070_
*117 _0071_
*118 _0072_
*119 _0073_
*120 _0074_
*121 _0075_
*122 _0076_
*123 _0077_
*124 _0078_
*125 _0079_
*126 _0080_
*127 _0081_
*128 _0082_
*129 _0083_
*130 _0084_
*131 _0085_
*132 _0086_
*133 _0087_
*134 _0088_
*135 _0089_
*136 _0090_
*137 _0091_
*138 _0092_
*139 _0093_
*140 _0094_
*141 _0095_
*142 _0096_
*143 _0097_
*144 _0098_
*145 _0099_
*146 _0100_
*147 _0101_
*148 _0102_
*149 _0103_
*150 _0104_
*151 _0105_
*152 _0106_
*153 _0107_
*154 _0108_
*155 _0109_
*156 _0110_
*157 _0111_
*158 _0112_
*159 _0113_
*160 _0114_
*161 _0115_
*162 _0116_
*163 _0117_
*164 _0118_
*165 _0119_
*166 _0120_
*167 _0121_
*168 _0122_
*169 _0123_
*170 _0124_
*171 _0125_
*172 _0126_
*173 _0127_
*174 _0128_
*175 _0129_
*176 _0130_
*177 _0131_
*178 _0132_
*179 _0133_
*180 _0134_
*181 _0135_
*182 _0136_
*183 _0137_
*184 _0138_
*185 _0139_
*186 _0140_
*187 _0141_
*188 _0142_
*189 _0143_
*190 _0144_
*191 _0145_
*192 _0146_
*193 _0147_
*194 _0148_
*195 _0149_
*196 _0150_
*197 _0151_
*198 _0152_
*199 _0153_
*200 _0154_
*201 _0155_
*202 _0156_
*203 _0157_
*204 _0158_
*205 _0159_
*206 _0160_
*207 _0161_
*208 _0162_
*209 _0163_
*210 _0164_
*211 _0165_
*212 _0166_
*213 _0167_
*214 _0168_
*215 _0169_
*216 _0170_
*217 _0171_
*218 _0172_
*219 _0173_
*220 _0174_
*221 _0175_
*222 _0176_
*223 _0177_
*224 _0178_
*225 _0179_
*226 _0180_
*227 _0181_
*228 _0182_
*229 _0183_
*230 _0184_
*231 _0185_
*232 _0186_
*233 _0187_
*234 _0188_
*235 _0189_
*236 _0190_
*237 _0191_
*238 _0192_
*239 _0193_
*240 _0194_
*241 _0195_
*242 _0196_
*243 _0197_
*244 _0198_
*245 _0199_
*246 _0200_
*247 _0201_
*248 _0202_
*249 _0203_
*250 _0204_
*251 _0205_
*252 _0206_
*253 _0207_
*254 _0208_
*255 _0209_
*256 _0210_
*257 _0211_
*258 _0212_
*259 _0213_
*260 _0214_
*261 _0215_
*262 _0216_
*263 _0217_
*264 _0218_
*265 _0219_
*266 _0220_
*267 _0221_
*268 _0222_
*269 _0223_
*270 _0224_
*271 _0225_
*272 _0226_
*273 _0227_
*274 _0228_
*275 _0229_
*276 _0230_
*277 _0231_
*278 _0232_
*279 _0233_
*280 _0234_
*281 _0235_
*282 _0236_
*283 _0237_
*284 _0238_
*285 _0239_
*286 _0240_
*287 _0241_
*288 _0242_
*289 _0243_
*290 _0244_
*291 _0245_
*292 _0246_
*293 _0247_
*294 _0248_
*295 _0249_
*296 _0250_
*297 _0251_
*298 _0252_
*299 _0253_
*300 _0254_
*301 _0255_
*302 _0256_
*303 _0257_
*304 _0258_
*305 _0259_
*306 _0260_
*307 _0261_
*308 _0262_
*309 _0263_
*310 _0264_
*311 _0265_
*312 _0266_
*313 _0267_
*314 _0268_
*315 _0269_
*316 _0270_
*317 _0271_
*318 _0272_
*319 _0273_
*320 _0274_
*321 _0275_
*322 _0276_
*323 _0277_
*324 _0278_
*325 _0279_
*326 _0280_
*327 _0281_
*328 _0282_
*329 _0283_
*330 _0284_
*331 _0285_
*332 _0286_
*333 _0287_
*334 _0288_
*335 _0289_
*336 _0290_
*337 _0291_
*338 _0292_
*339 _0293_
*340 _0294_
*341 _0295_
*342 _0296_
*343 _0297_
*344 _0298_
*345 _0299_
*346 _0300_
*347 _0301_
*348 _0302_
*349 _0303_
*350 _0304_
*351 _0305_
*352 _0306_
*353 _0307_
*354 _0308_
*355 _0309_
*356 _0310_
*357 _0311_
*358 _0312_
*359 _0313_
*360 _0314_
*361 _0315_
*362 _0316_
*363 _0317_
*364 _0318_
*365 _0319_
*366 _0320_
*367 _0321_
*368 _0322_
*369 _0323_
*370 _0324_
*371 _0325_
*372 _0326_
*373 _0327_
*374 _0328_
*375 _0329_
*376 _0330_
*377 _0331_
*378 _0332_
*379 _0333_
*380 _0334_
*381 _0335_
*382 _0336_
*383 _0337_
*384 _0338_
*385 _0339_
*386 _0340_
*387 _0341_
*388 _0342_
*389 _0343_
*390 _0344_
*391 _0345_
*392 _0346_
*393 _0347_
*394 _0348_
*395 _0349_
*396 _0350_
*397 _0351_
*398 _0352_
*399 _0353_
*400 _0354_
*401 _0355_
*402 _0356_
*403 _0357_
*404 _0358_
*405 _0359_
*406 _0360_
*407 _0361_
*408 _0362_
*409 _0363_
*410 _0364_
*411 _0365_
*412 _0366_
*413 _0367_
*414 _0368_
*415 _0369_
*416 _0370_
*417 _0371_
*418 _0372_
*419 _0373_
*420 _0374_
*421 _0375_
*422 _0376_
*423 _0377_
*424 _0378_
*425 _0379_
*426 _0380_
*427 _0381_
*428 _0382_
*429 _0383_
*430 _0384_
*431 _0385_
*432 _0386_
*433 _0387_
*434 _0388_
*435 _0389_
*436 _0390_
*437 _0391_
*438 _0392_
*439 _0393_
*440 _0394_
*441 _0395_
*442 _0396_
*443 _0397_
*444 _0398_
*445 _0399_
*446 _0400_
*447 _0401_
*448 _0402_
*449 _0403_
*450 _0404_
*451 _0405_
*452 _0406_
*453 _0407_
*454 _0408_
*455 _0409_
*456 _0410_
*457 _0411_
*458 _0412_
*459 _0413_
*460 _0414_
*461 _0415_
*462 _0416_
*463 _0417_
*464 _0418_
*465 _0419_
*466 _0420_
*467 _0421_
*468 _0422_
*469 _0423_
*470 _0424_
*471 _0425_
*472 _0426_
*473 _0427_
*474 _0428_
*475 _0429_
*476 _0430_
*477 _0431_
*478 _0432_
*479 _0433_
*480 _0434_
*481 _0435_
*482 _0436_
*483 _0437_
*484 _0438_
*485 _0439_
*486 _0440_
*487 _0441_
*488 _0442_
*489 _0443_
*490 _0444_
*491 _0445_
*492 _0446_
*493 _0447_
*494 _0448_
*495 _0449_
*496 _0450_
*497 _0451_
*498 _0452_
*499 _0453_
*500 _0454_
*501 _0455_
*502 _0456_
*503 _0457_
*504 _0458_
*505 _0459_
*506 _0460_
*507 _0461_
*508 _0462_
*509 _0463_
*510 _0464_
*511 _0465_
*512 _0466_
*513 _0467_
*514 _0468_
*515 _0469_
*516 _0470_
*517 _0471_
*518 _0472_
*519 _0473_
*520 _0474_
*521 _0475_
*522 _0476_
*523 _0477_
*524 _0478_
*525 _0479_
*526 _0480_
*527 _0481_
*528 _0482_
*529 _0483_
*530 _0484_
*531 _0485_
*532 _0486_
*533 _0487_
*534 _0488_
*535 _0489_
*536 _0490_
*537 _0491_
*538 _0492_
*539 _0493_
*540 _0494_
*541 _0495_
*542 _0496_
*543 _0497_
*544 _0498_
*545 _0499_
*546 _0500_
*547 _0501_
*548 _0502_
*549 _0503_
*550 _0504_
*551 _0505_
*552 _0506_
*553 _0507_
*554 _0508_
*555 _0509_
*556 _0510_
*557 _0511_
*558 _0512_
*559 _0513_
*560 _0514_
*561 _0515_
*562 _0516_
*563 _0517_
*564 _0518_
*565 _0519_
*566 _0520_
*567 _0521_
*568 _0522_
*569 _0523_
*570 _0524_
*571 _0525_
*572 _0526_
*573 _0527_
*574 _0528_
*575 _0529_
*576 _0530_
*577 _0531_
*578 _0532_
*579 _0533_
*580 _0534_
*581 _0535_
*582 _0536_
*583 _0537_
*584 _0538_
*585 _0539_
*586 _0540_
*587 _0541_
*588 _0542_
*589 _0543_
*590 _0544_
*591 _0545_
*592 _0546_
*593 _0547_
*594 _0548_
*595 _0549_
*596 _0550_
*597 _0551_
*598 _0552_
*599 _0553_
*600 _0554_
*601 _0555_
*602 _0556_
*603 _0557_
*604 _0558_
*605 _0559_
*606 _0560_
*607 _0561_
*608 _0562_
*609 _0563_
*610 _0564_
*611 _0565_
*612 _0566_
*613 _0567_
*614 _0568_
*615 _0569_
*616 _0570_
*617 _0571_
*618 _0572_
*619 _0573_
*620 _0574_
*621 _0575_
*622 _0576_
*623 _0577_
*624 _0578_
*625 _0579_
*626 _0580_
*627 _0581_
*628 _0582_
*629 _0583_
*630 _0584_
*631 _0585_
*632 _0586_
*633 _0587_
*634 _0588_
*635 _0589_
*636 _0590_
*637 _0591_
*638 _0592_
*639 _0593_
*640 _0594_
*641 _0595_
*642 _0596_
*643 _0597_
*644 _0598_
*645 _0599_
*646 _0600_
*647 _0601_
*648 _0602_
*649 _0603_
*650 _0604_
*651 _0605_
*652 _0606_
*653 _0607_
*654 _0608_
*655 _0609_
*656 _0610_
*657 _0611_
*658 _0612_
*659 _0613_
*660 _0614_
*661 _0615_
*662 _0616_
*663 clknet_0_clk
*664 clknet_0_sap_1\.clock\.clk_out
*665 clknet_1_0__leaf_clk
*666 clknet_1_1__leaf_clk
*667 clknet_2_0__leaf_sap_1\.clock\.clk_out
*668 clknet_2_1__leaf_sap_1\.clock\.clk_out
*669 clknet_2_2__leaf_sap_1\.clock\.clk_out
*670 clknet_2_3__leaf_sap_1\.clock\.clk_out
*671 net1
*672 net2
*673 net20
*674 net21
*675 net22
*676 net23
*677 net24
*678 net25
*679 net26
*680 net27
*681 net28
*682 net29
*683 net3
*684 net30
*685 net31
*686 net32
*687 net33
*688 net34
*689 net35
*690 net36
*691 net37
*692 net38
*693 net39
*694 net40
*695 net41
*696 net42
*697 sap_1\.a_en
*698 sap_1\.a_load
*699 sap_1\.a_out\[0\]
*700 sap_1\.a_out\[1\]
*701 sap_1\.a_out\[2\]
*702 sap_1\.a_out\[3\]
*703 sap_1\.a_out\[4\]
*704 sap_1\.a_out\[5\]
*705 sap_1\.a_out\[6\]
*706 sap_1\.a_out\[7\]
*707 sap_1\.adder\.b\[0\]
*708 sap_1\.adder\.b\[1\]
*709 sap_1\.adder\.b\[2\]
*710 sap_1\.adder\.b\[3\]
*711 sap_1\.adder\.b\[4\]
*712 sap_1\.adder\.b\[5\]
*713 sap_1\.adder\.b\[6\]
*714 sap_1\.adder\.b\[7\]
*715 sap_1\.adder_en
*716 sap_1\.b_load
*717 sap_1\.clock\.clk_out
*718 sap_1\.clock\.hlt
*719 sap_1\.controller\.opcode\[0\]
*720 sap_1\.controller\.opcode\[1\]
*721 sap_1\.controller\.opcode\[2\]
*722 sap_1\.controller\.opcode\[3\]
*723 sap_1\.controller\.stage\[0\]
*724 sap_1\.controller\.stage\[1\]
*725 sap_1\.controller\.stage\[2\]
*726 sap_1\.divider_en
*727 sap_1\.ir\.ir\[0\]
*728 sap_1\.ir\.ir\[1\]
*729 sap_1\.ir\.ir\[2\]
*730 sap_1\.ir\.ir\[3\]
*731 sap_1\.ir\.load
*732 sap_1\.ir_en
*733 sap_1\.mar_load
*734 sap_1\.mem\.mar\[0\]
*735 sap_1\.mem\.mar\[1\]
*736 sap_1\.mem\.mar\[2\]
*737 sap_1\.mem\.mar\[3\]
*738 sap_1\.mem\.out\[0\]
*739 sap_1\.mem\.out\[1\]
*740 sap_1\.mem\.out\[2\]
*741 sap_1\.mem\.out\[3\]
*742 sap_1\.mem\.out\[4\]
*743 sap_1\.mem\.out\[5\]
*744 sap_1\.mem\.out\[6\]
*745 sap_1\.mem_en
*746 sap_1\.multiplier_en
*747 sap_1\.pc\.inc
*748 sap_1\.pc\.out\[0\]
*749 sap_1\.pc\.out\[1\]
*750 sap_1\.pc\.out\[2\]
*751 sap_1\.pc\.out\[3\]
*752 sap_1\.pc_en
*753 ANTENNA_1
*754 FILLER_0_0_109
*755 FILLER_0_0_113
*756 FILLER_0_0_125
*757 FILLER_0_0_137
*758 FILLER_0_0_141
*759 FILLER_0_0_15
*760 FILLER_0_0_153
*761 FILLER_0_0_165
*762 FILLER_0_0_169
*763 FILLER_0_0_181
*764 FILLER_0_0_193
*765 FILLER_0_0_197
*766 FILLER_0_0_209
*767 FILLER_0_0_221
*768 FILLER_0_0_225
*769 FILLER_0_0_237
*770 FILLER_0_0_249
*771 FILLER_0_0_253
*772 FILLER_0_0_265
*773 FILLER_0_0_27
*774 FILLER_0_0_277
*775 FILLER_0_0_281
*776 FILLER_0_0_29
*777 FILLER_0_0_293
*778 FILLER_0_0_3
*779 FILLER_0_0_305
*780 FILLER_0_0_309
*781 FILLER_0_0_321
*782 FILLER_0_0_333
*783 FILLER_0_0_41
*784 FILLER_0_0_53
*785 FILLER_0_0_57
*786 FILLER_0_0_69
*787 FILLER_0_0_81
*788 FILLER_0_0_85
*789 FILLER_0_0_97
*790 FILLER_0_10_111
*791 FILLER_0_10_125
*792 FILLER_0_10_136
*793 FILLER_0_10_15
*794 FILLER_0_10_154
*795 FILLER_0_10_166
*796 FILLER_0_10_178
*797 FILLER_0_10_190
*798 FILLER_0_10_197
*799 FILLER_0_10_205
*800 FILLER_0_10_209
*801 FILLER_0_10_215
*802 FILLER_0_10_228
*803 FILLER_0_10_238
*804 FILLER_0_10_245
*805 FILLER_0_10_251
*806 FILLER_0_10_260
*807 FILLER_0_10_27
*808 FILLER_0_10_272
*809 FILLER_0_10_280
*810 FILLER_0_10_29
*811 FILLER_0_10_294
*812 FILLER_0_10_3
*813 FILLER_0_10_305
*814 FILLER_0_10_309
*815 FILLER_0_10_321
*816 FILLER_0_10_33
*817 FILLER_0_10_333
*818 FILLER_0_10_59
*819 FILLER_0_10_71
*820 FILLER_0_10_77
*821 FILLER_0_10_83
*822 FILLER_0_10_99
*823 FILLER_0_11_111
*824 FILLER_0_11_113
*825 FILLER_0_11_121
*826 FILLER_0_11_137
*827 FILLER_0_11_147
*828 FILLER_0_11_15
*829 FILLER_0_11_151
*830 FILLER_0_11_155
*831 FILLER_0_11_167
*832 FILLER_0_11_169
*833 FILLER_0_11_184
*834 FILLER_0_11_215
*835 FILLER_0_11_223
*836 FILLER_0_11_228
*837 FILLER_0_11_240
*838 FILLER_0_11_252
*839 FILLER_0_11_256
*840 FILLER_0_11_264
*841 FILLER_0_11_27
*842 FILLER_0_11_275
*843 FILLER_0_11_279
*844 FILLER_0_11_281
*845 FILLER_0_11_289
*846 FILLER_0_11_298
*847 FILLER_0_11_3
*848 FILLER_0_11_310
*849 FILLER_0_11_322
*850 FILLER_0_11_334
*851 FILLER_0_11_39
*852 FILLER_0_11_47
*853 FILLER_0_11_64
*854 FILLER_0_11_70
*855 FILLER_0_11_81
*856 FILLER_0_11_89
*857 FILLER_0_11_99
*858 FILLER_0_12_108
*859 FILLER_0_12_123
*860 FILLER_0_12_139
*861 FILLER_0_12_144
*862 FILLER_0_12_15
*863 FILLER_0_12_156
*864 FILLER_0_12_165
*865 FILLER_0_12_173
*866 FILLER_0_12_193
*867 FILLER_0_12_197
*868 FILLER_0_12_201
*869 FILLER_0_12_206
*870 FILLER_0_12_216
*871 FILLER_0_12_220
*872 FILLER_0_12_232
*873 FILLER_0_12_243
*874 FILLER_0_12_251
*875 FILLER_0_12_253
*876 FILLER_0_12_265
*877 FILLER_0_12_27
*878 FILLER_0_12_277
*879 FILLER_0_12_281
*880 FILLER_0_12_29
*881 FILLER_0_12_290
*882 FILLER_0_12_298
*883 FILLER_0_12_3
*884 FILLER_0_12_306
*885 FILLER_0_12_309
*886 FILLER_0_12_321
*887 FILLER_0_12_333
*888 FILLER_0_12_35
*889 FILLER_0_12_52
*890 FILLER_0_12_64
*891 FILLER_0_12_70
*892 FILLER_0_12_81
*893 FILLER_0_12_85
*894 FILLER_0_12_97
*895 FILLER_0_13_111
*896 FILLER_0_13_118
*897 FILLER_0_13_133
*898 FILLER_0_13_15
*899 FILLER_0_13_154
*900 FILLER_0_13_158
*901 FILLER_0_13_165
*902 FILLER_0_13_172
*903 FILLER_0_13_184
*904 FILLER_0_13_196
*905 FILLER_0_13_204
*906 FILLER_0_13_208
*907 FILLER_0_13_212
*908 FILLER_0_13_225
*909 FILLER_0_13_231
*910 FILLER_0_13_243
*911 FILLER_0_13_255
*912 FILLER_0_13_263
*913 FILLER_0_13_27
*914 FILLER_0_13_276
*915 FILLER_0_13_296
*916 FILLER_0_13_3
*917 FILLER_0_13_317
*918 FILLER_0_13_329
*919 FILLER_0_13_33
*920 FILLER_0_13_43
*921 FILLER_0_13_48
*922 FILLER_0_13_63
*923 FILLER_0_13_75
*924 FILLER_0_13_87
*925 FILLER_0_13_99
*926 FILLER_0_14_100
*927 FILLER_0_14_126
*928 FILLER_0_14_139
*929 FILLER_0_14_144
*930 FILLER_0_14_15
*931 FILLER_0_14_153
*932 FILLER_0_14_162
*933 FILLER_0_14_170
*934 FILLER_0_14_178
*935 FILLER_0_14_194
*936 FILLER_0_14_197
*937 FILLER_0_14_209
*938 FILLER_0_14_218
*939 FILLER_0_14_232
*940 FILLER_0_14_236
*941 FILLER_0_14_249
*942 FILLER_0_14_259
*943 FILLER_0_14_27
*944 FILLER_0_14_275
*945 FILLER_0_14_287
*946 FILLER_0_14_29
*947 FILLER_0_14_291
*948 FILLER_0_14_3
*949 FILLER_0_14_315
*950 FILLER_0_14_328
*951 FILLER_0_14_334
*952 FILLER_0_14_35
*953 FILLER_0_14_51
*954 FILLER_0_14_66
*955 FILLER_0_14_74
*956 FILLER_0_14_85
*957 FILLER_0_15_104
*958 FILLER_0_15_11
*959 FILLER_0_15_113
*960 FILLER_0_15_125
*961 FILLER_0_15_138
*962 FILLER_0_15_146
*963 FILLER_0_15_151
*964 FILLER_0_15_169
*965 FILLER_0_15_175
*966 FILLER_0_15_187
*967 FILLER_0_15_193
*968 FILLER_0_15_208
*969 FILLER_0_15_217
*970 FILLER_0_15_223
*971 FILLER_0_15_225
*972 FILLER_0_15_233
*973 FILLER_0_15_240
*974 FILLER_0_15_248
*975 FILLER_0_15_25
*976 FILLER_0_15_261
*977 FILLER_0_15_271
*978 FILLER_0_15_275
*979 FILLER_0_15_279
*980 FILLER_0_15_290
*981 FILLER_0_15_3
*982 FILLER_0_15_300
*983 FILLER_0_15_312
*984 FILLER_0_15_322
*985 FILLER_0_15_334
*986 FILLER_0_15_37
*987 FILLER_0_15_46
*988 FILLER_0_15_54
*989 FILLER_0_15_60
*990 FILLER_0_15_68
*991 FILLER_0_15_73
*992 FILLER_0_15_85
*993 FILLER_0_15_93
*994 FILLER_0_15_97
*995 FILLER_0_16_11
*996 FILLER_0_16_121
*997 FILLER_0_16_131
*998 FILLER_0_16_139
*999 FILLER_0_16_141
*1000 FILLER_0_16_149
*1001 FILLER_0_16_16
*1002 FILLER_0_16_164
*1003 FILLER_0_16_178
*1004 FILLER_0_16_186
*1005 FILLER_0_16_194
*1006 FILLER_0_16_197
*1007 FILLER_0_16_214
*1008 FILLER_0_16_220
*1009 FILLER_0_16_231
*1010 FILLER_0_16_244
*1011 FILLER_0_16_253
*1012 FILLER_0_16_261
*1013 FILLER_0_16_274
*1014 FILLER_0_16_286
*1015 FILLER_0_16_3
*1016 FILLER_0_16_309
*1017 FILLER_0_16_317
*1018 FILLER_0_16_325
*1019 FILLER_0_16_333
*1020 FILLER_0_16_61
*1021 FILLER_0_16_68
*1022 FILLER_0_16_79
*1023 FILLER_0_16_85
*1024 FILLER_0_16_99
*1025 FILLER_0_17_104
*1026 FILLER_0_17_154
*1027 FILLER_0_17_166
*1028 FILLER_0_17_169
*1029 FILLER_0_17_174
*1030 FILLER_0_17_183
*1031 FILLER_0_17_191
*1032 FILLER_0_17_200
*1033 FILLER_0_17_21
*1034 FILLER_0_17_216
*1035 FILLER_0_17_236
*1036 FILLER_0_17_264
*1037 FILLER_0_17_276
*1038 FILLER_0_17_292
*1039 FILLER_0_17_3
*1040 FILLER_0_17_304
*1041 FILLER_0_17_312
*1042 FILLER_0_17_320
*1043 FILLER_0_17_332
*1044 FILLER_0_17_46
*1045 FILLER_0_17_54
*1046 FILLER_0_17_57
*1047 FILLER_0_17_65
*1048 FILLER_0_17_84
*1049 FILLER_0_17_88
*1050 FILLER_0_17_92
*1051 FILLER_0_18_113
*1052 FILLER_0_18_121
*1053 FILLER_0_18_141
*1054 FILLER_0_18_150
*1055 FILLER_0_18_170
*1056 FILLER_0_18_195
*1057 FILLER_0_18_197
*1058 FILLER_0_18_212
*1059 FILLER_0_18_224
*1060 FILLER_0_18_23
*1061 FILLER_0_18_236
*1062 FILLER_0_18_248
*1063 FILLER_0_18_253
*1064 FILLER_0_18_259
*1065 FILLER_0_18_267
*1066 FILLER_0_18_27
*1067 FILLER_0_18_276
*1068 FILLER_0_18_293
*1069 FILLER_0_18_3
*1070 FILLER_0_18_306
*1071 FILLER_0_18_309
*1072 FILLER_0_18_321
*1073 FILLER_0_18_333
*1074 FILLER_0_18_66
*1075 FILLER_0_18_70
*1076 FILLER_0_18_80
*1077 FILLER_0_19_113
*1078 FILLER_0_19_117
*1079 FILLER_0_19_129
*1080 FILLER_0_19_141
*1081 FILLER_0_19_145
*1082 FILLER_0_19_149
*1083 FILLER_0_19_15
*1084 FILLER_0_19_157
*1085 FILLER_0_19_161
*1086 FILLER_0_19_167
*1087 FILLER_0_19_169
*1088 FILLER_0_19_173
*1089 FILLER_0_19_182
*1090 FILLER_0_19_194
*1091 FILLER_0_19_203
*1092 FILLER_0_19_215
*1093 FILLER_0_19_223
*1094 FILLER_0_19_234
*1095 FILLER_0_19_248
*1096 FILLER_0_19_269
*1097 FILLER_0_19_27
*1098 FILLER_0_19_277
*1099 FILLER_0_19_281
*1100 FILLER_0_19_293
*1101 FILLER_0_19_3
*1102 FILLER_0_19_302
*1103 FILLER_0_19_327
*1104 FILLER_0_19_33
*1105 FILLER_0_19_331
*1106 FILLER_0_19_45
*1107 FILLER_0_19_68
*1108 FILLER_0_19_89
*1109 FILLER_0_1_105
*1110 FILLER_0_1_111
*1111 FILLER_0_1_113
*1112 FILLER_0_1_125
*1113 FILLER_0_1_137
*1114 FILLER_0_1_149
*1115 FILLER_0_1_15
*1116 FILLER_0_1_161
*1117 FILLER_0_1_167
*1118 FILLER_0_1_169
*1119 FILLER_0_1_181
*1120 FILLER_0_1_193
*1121 FILLER_0_1_205
*1122 FILLER_0_1_217
*1123 FILLER_0_1_223
*1124 FILLER_0_1_225
*1125 FILLER_0_1_237
*1126 FILLER_0_1_249
*1127 FILLER_0_1_261
*1128 FILLER_0_1_27
*1129 FILLER_0_1_273
*1130 FILLER_0_1_279
*1131 FILLER_0_1_281
*1132 FILLER_0_1_293
*1133 FILLER_0_1_3
*1134 FILLER_0_1_305
*1135 FILLER_0_1_317
*1136 FILLER_0_1_329
*1137 FILLER_0_1_39
*1138 FILLER_0_1_51
*1139 FILLER_0_1_55
*1140 FILLER_0_1_57
*1141 FILLER_0_1_69
*1142 FILLER_0_1_81
*1143 FILLER_0_1_93
*1144 FILLER_0_20_106
*1145 FILLER_0_20_114
*1146 FILLER_0_20_136
*1147 FILLER_0_20_162
*1148 FILLER_0_20_170
*1149 FILLER_0_20_174
*1150 FILLER_0_20_188
*1151 FILLER_0_20_204
*1152 FILLER_0_20_224
*1153 FILLER_0_20_23
*1154 FILLER_0_20_232
*1155 FILLER_0_20_238
*1156 FILLER_0_20_250
*1157 FILLER_0_20_256
*1158 FILLER_0_20_27
*1159 FILLER_0_20_271
*1160 FILLER_0_20_279
*1161 FILLER_0_20_298
*1162 FILLER_0_20_3
*1163 FILLER_0_20_306
*1164 FILLER_0_20_312
*1165 FILLER_0_20_324
*1166 FILLER_0_20_332
*1167 FILLER_0_20_35
*1168 FILLER_0_20_39
*1169 FILLER_0_20_47
*1170 FILLER_0_20_55
*1171 FILLER_0_20_67
*1172 FILLER_0_20_79
*1173 FILLER_0_20_83
*1174 FILLER_0_21_106
*1175 FILLER_0_21_11
*1176 FILLER_0_21_113
*1177 FILLER_0_21_117
*1178 FILLER_0_21_121
*1179 FILLER_0_21_133
*1180 FILLER_0_21_145
*1181 FILLER_0_21_169
*1182 FILLER_0_21_181
*1183 FILLER_0_21_189
*1184 FILLER_0_21_200
*1185 FILLER_0_21_204
*1186 FILLER_0_21_210
*1187 FILLER_0_21_218
*1188 FILLER_0_21_22
*1189 FILLER_0_21_225
*1190 FILLER_0_21_233
*1191 FILLER_0_21_243
*1192 FILLER_0_21_252
*1193 FILLER_0_21_260
*1194 FILLER_0_21_272
*1195 FILLER_0_21_281
*1196 FILLER_0_21_289
*1197 FILLER_0_21_3
*1198 FILLER_0_21_30
*1199 FILLER_0_21_301
*1200 FILLER_0_21_316
*1201 FILLER_0_21_331
*1202 FILLER_0_21_38
*1203 FILLER_0_21_46
*1204 FILLER_0_21_54
*1205 FILLER_0_21_57
*1206 FILLER_0_21_64
*1207 FILLER_0_21_76
*1208 FILLER_0_21_88
*1209 FILLER_0_22_102
*1210 FILLER_0_22_106
*1211 FILLER_0_22_141
*1212 FILLER_0_22_149
*1213 FILLER_0_22_15
*1214 FILLER_0_22_157
*1215 FILLER_0_22_169
*1216 FILLER_0_22_175
*1217 FILLER_0_22_186
*1218 FILLER_0_22_217
*1219 FILLER_0_22_223
*1220 FILLER_0_22_229
*1221 FILLER_0_22_237
*1222 FILLER_0_22_251
*1223 FILLER_0_22_261
*1224 FILLER_0_22_267
*1225 FILLER_0_22_27
*1226 FILLER_0_22_276
*1227 FILLER_0_22_284
*1228 FILLER_0_22_29
*1229 FILLER_0_22_294
*1230 FILLER_0_22_3
*1231 FILLER_0_22_302
*1232 FILLER_0_22_315
*1233 FILLER_0_22_328
*1234 FILLER_0_22_334
*1235 FILLER_0_22_37
*1236 FILLER_0_22_62
*1237 FILLER_0_22_68
*1238 FILLER_0_22_83
*1239 FILLER_0_22_85
*1240 FILLER_0_22_96
*1241 FILLER_0_23_105
*1242 FILLER_0_23_111
*1243 FILLER_0_23_113
*1244 FILLER_0_23_120
*1245 FILLER_0_23_134
*1246 FILLER_0_23_138
*1247 FILLER_0_23_144
*1248 FILLER_0_23_149
*1249 FILLER_0_23_157
*1250 FILLER_0_23_165
*1251 FILLER_0_23_169
*1252 FILLER_0_23_185
*1253 FILLER_0_23_197
*1254 FILLER_0_23_209
*1255 FILLER_0_23_21
*1256 FILLER_0_23_215
*1257 FILLER_0_23_223
*1258 FILLER_0_23_225
*1259 FILLER_0_23_231
*1260 FILLER_0_23_239
*1261 FILLER_0_23_251
*1262 FILLER_0_23_261
*1263 FILLER_0_23_269
*1264 FILLER_0_23_276
*1265 FILLER_0_23_281
*1266 FILLER_0_23_290
*1267 FILLER_0_23_3
*1268 FILLER_0_23_302
*1269 FILLER_0_23_314
*1270 FILLER_0_23_326
*1271 FILLER_0_23_33
*1272 FILLER_0_23_334
*1273 FILLER_0_23_50
*1274 FILLER_0_23_71
*1275 FILLER_0_23_82
*1276 FILLER_0_23_94
*1277 FILLER_0_24_11
*1278 FILLER_0_24_116
*1279 FILLER_0_24_136
*1280 FILLER_0_24_154
*1281 FILLER_0_24_174
*1282 FILLER_0_24_186
*1283 FILLER_0_24_220
*1284 FILLER_0_24_226
*1285 FILLER_0_24_234
*1286 FILLER_0_24_238
*1287 FILLER_0_24_26
*1288 FILLER_0_24_267
*1289 FILLER_0_24_273
*1290 FILLER_0_24_284
*1291 FILLER_0_24_288
*1292 FILLER_0_24_3
*1293 FILLER_0_24_325
*1294 FILLER_0_24_333
*1295 FILLER_0_24_35
*1296 FILLER_0_24_39
*1297 FILLER_0_24_50
*1298 FILLER_0_24_58
*1299 FILLER_0_24_65
*1300 FILLER_0_24_73
*1301 FILLER_0_25_110
*1302 FILLER_0_25_113
*1303 FILLER_0_25_130
*1304 FILLER_0_25_134
*1305 FILLER_0_25_15
*1306 FILLER_0_25_163
*1307 FILLER_0_25_167
*1308 FILLER_0_25_172
*1309 FILLER_0_25_190
*1310 FILLER_0_25_202
*1311 FILLER_0_25_210
*1312 FILLER_0_25_214
*1313 FILLER_0_25_232
*1314 FILLER_0_25_244
*1315 FILLER_0_25_256
*1316 FILLER_0_25_27
*1317 FILLER_0_25_277
*1318 FILLER_0_25_287
*1319 FILLER_0_25_299
*1320 FILLER_0_25_3
*1321 FILLER_0_25_303
*1322 FILLER_0_25_309
*1323 FILLER_0_25_31
*1324 FILLER_0_25_317
*1325 FILLER_0_25_334
*1326 FILLER_0_25_50
*1327 FILLER_0_25_57
*1328 FILLER_0_25_69
*1329 FILLER_0_25_84
*1330 FILLER_0_25_92
*1331 FILLER_0_25_99
*1332 FILLER_0_26_117
*1333 FILLER_0_26_125
*1334 FILLER_0_26_136
*1335 FILLER_0_26_141
*1336 FILLER_0_26_148
*1337 FILLER_0_26_15
*1338 FILLER_0_26_159
*1339 FILLER_0_26_171
*1340 FILLER_0_26_177
*1341 FILLER_0_26_185
*1342 FILLER_0_26_193
*1343 FILLER_0_26_197
*1344 FILLER_0_26_210
*1345 FILLER_0_26_222
*1346 FILLER_0_26_27
*1347 FILLER_0_26_280
*1348 FILLER_0_26_287
*1349 FILLER_0_26_29
*1350 FILLER_0_26_3
*1351 FILLER_0_26_307
*1352 FILLER_0_26_309
*1353 FILLER_0_26_323
*1354 FILLER_0_26_41
*1355 FILLER_0_26_48
*1356 FILLER_0_26_56
*1357 FILLER_0_26_65
*1358 FILLER_0_26_73
*1359 FILLER_0_26_81
*1360 FILLER_0_26_85
*1361 FILLER_0_26_89
*1362 FILLER_0_26_99
*1363 FILLER_0_27_113
*1364 FILLER_0_27_124
*1365 FILLER_0_27_15
*1366 FILLER_0_27_152
*1367 FILLER_0_27_158
*1368 FILLER_0_27_164
*1369 FILLER_0_27_178
*1370 FILLER_0_27_194
*1371 FILLER_0_27_221
*1372 FILLER_0_27_225
*1373 FILLER_0_27_242
*1374 FILLER_0_27_254
*1375 FILLER_0_27_266
*1376 FILLER_0_27_27
*1377 FILLER_0_27_276
*1378 FILLER_0_27_297
*1379 FILLER_0_27_3
*1380 FILLER_0_27_307
*1381 FILLER_0_27_317
*1382 FILLER_0_27_35
*1383 FILLER_0_27_45
*1384 FILLER_0_27_53
*1385 FILLER_0_27_57
*1386 FILLER_0_27_69
*1387 FILLER_0_27_73
*1388 FILLER_0_27_91
*1389 FILLER_0_28_100
*1390 FILLER_0_28_112
*1391 FILLER_0_28_120
*1392 FILLER_0_28_127
*1393 FILLER_0_28_138
*1394 FILLER_0_28_141
*1395 FILLER_0_28_15
*1396 FILLER_0_28_153
*1397 FILLER_0_28_165
*1398 FILLER_0_28_177
*1399 FILLER_0_28_194
*1400 FILLER_0_28_197
*1401 FILLER_0_28_249
*1402 FILLER_0_28_253
*1403 FILLER_0_28_265
*1404 FILLER_0_28_27
*1405 FILLER_0_28_29
*1406 FILLER_0_28_295
*1407 FILLER_0_28_3
*1408 FILLER_0_28_304
*1409 FILLER_0_28_316
*1410 FILLER_0_28_322
*1411 FILLER_0_28_326
*1412 FILLER_0_28_334
*1413 FILLER_0_28_41
*1414 FILLER_0_28_53
*1415 FILLER_0_28_65
*1416 FILLER_0_28_82
*1417 FILLER_0_28_88
*1418 FILLER_0_29_106
*1419 FILLER_0_29_122
*1420 FILLER_0_29_139
*1421 FILLER_0_29_15
*1422 FILLER_0_29_166
*1423 FILLER_0_29_169
*1424 FILLER_0_29_175
*1425 FILLER_0_29_185
*1426 FILLER_0_29_197
*1427 FILLER_0_29_216
*1428 FILLER_0_29_241
*1429 FILLER_0_29_27
*1430 FILLER_0_29_275
*1431 FILLER_0_29_279
*1432 FILLER_0_29_281
*1433 FILLER_0_29_293
*1434 FILLER_0_29_3
*1435 FILLER_0_29_301
*1436 FILLER_0_29_305
*1437 FILLER_0_29_311
*1438 FILLER_0_29_325
*1439 FILLER_0_29_333
*1440 FILLER_0_29_39
*1441 FILLER_0_29_51
*1442 FILLER_0_29_55
*1443 FILLER_0_29_57
*1444 FILLER_0_29_69
*1445 FILLER_0_29_91
*1446 FILLER_0_29_97
*1447 FILLER_0_2_109
*1448 FILLER_0_2_121
*1449 FILLER_0_2_133
*1450 FILLER_0_2_139
*1451 FILLER_0_2_141
*1452 FILLER_0_2_15
*1453 FILLER_0_2_153
*1454 FILLER_0_2_165
*1455 FILLER_0_2_177
*1456 FILLER_0_2_189
*1457 FILLER_0_2_195
*1458 FILLER_0_2_197
*1459 FILLER_0_2_209
*1460 FILLER_0_2_221
*1461 FILLER_0_2_233
*1462 FILLER_0_2_245
*1463 FILLER_0_2_251
*1464 FILLER_0_2_253
*1465 FILLER_0_2_265
*1466 FILLER_0_2_27
*1467 FILLER_0_2_277
*1468 FILLER_0_2_289
*1469 FILLER_0_2_29
*1470 FILLER_0_2_3
*1471 FILLER_0_2_301
*1472 FILLER_0_2_307
*1473 FILLER_0_2_309
*1474 FILLER_0_2_321
*1475 FILLER_0_2_333
*1476 FILLER_0_2_41
*1477 FILLER_0_2_53
*1478 FILLER_0_2_65
*1479 FILLER_0_2_77
*1480 FILLER_0_2_83
*1481 FILLER_0_2_85
*1482 FILLER_0_2_97
*1483 FILLER_0_30_115
*1484 FILLER_0_30_130
*1485 FILLER_0_30_141
*1486 FILLER_0_30_15
*1487 FILLER_0_30_197
*1488 FILLER_0_30_224
*1489 FILLER_0_30_236
*1490 FILLER_0_30_243
*1491 FILLER_0_30_251
*1492 FILLER_0_30_253
*1493 FILLER_0_30_265
*1494 FILLER_0_30_27
*1495 FILLER_0_30_273
*1496 FILLER_0_30_281
*1497 FILLER_0_30_29
*1498 FILLER_0_30_3
*1499 FILLER_0_30_306
*1500 FILLER_0_30_309
*1501 FILLER_0_30_317
*1502 FILLER_0_30_41
*1503 FILLER_0_30_53
*1504 FILLER_0_30_65
*1505 FILLER_0_30_77
*1506 FILLER_0_30_83
*1507 FILLER_0_30_88
*1508 FILLER_0_30_94
*1509 FILLER_0_31_103
*1510 FILLER_0_31_129
*1511 FILLER_0_31_133
*1512 FILLER_0_31_15
*1513 FILLER_0_31_169
*1514 FILLER_0_31_184
*1515 FILLER_0_31_205
*1516 FILLER_0_31_216
*1517 FILLER_0_31_228
*1518 FILLER_0_31_27
*1519 FILLER_0_31_271
*1520 FILLER_0_31_279
*1521 FILLER_0_31_288
*1522 FILLER_0_31_296
*1523 FILLER_0_31_3
*1524 FILLER_0_31_308
*1525 FILLER_0_31_313
*1526 FILLER_0_31_327
*1527 FILLER_0_31_39
*1528 FILLER_0_31_51
*1529 FILLER_0_31_55
*1530 FILLER_0_31_57
*1531 FILLER_0_31_69
*1532 FILLER_0_31_81
*1533 FILLER_0_31_93
*1534 FILLER_0_32_110
*1535 FILLER_0_32_122
*1536 FILLER_0_32_133
*1537 FILLER_0_32_139
*1538 FILLER_0_32_141
*1539 FILLER_0_32_15
*1540 FILLER_0_32_192
*1541 FILLER_0_32_236
*1542 FILLER_0_32_248
*1543 FILLER_0_32_253
*1544 FILLER_0_32_259
*1545 FILLER_0_32_27
*1546 FILLER_0_32_279
*1547 FILLER_0_32_29
*1548 FILLER_0_32_295
*1549 FILLER_0_32_3
*1550 FILLER_0_32_307
*1551 FILLER_0_32_309
*1552 FILLER_0_32_315
*1553 FILLER_0_32_41
*1554 FILLER_0_32_53
*1555 FILLER_0_32_65
*1556 FILLER_0_32_73
*1557 FILLER_0_32_83
*1558 FILLER_0_33_109
*1559 FILLER_0_33_113
*1560 FILLER_0_33_131
*1561 FILLER_0_33_15
*1562 FILLER_0_33_166
*1563 FILLER_0_33_222
*1564 FILLER_0_33_231
*1565 FILLER_0_33_237
*1566 FILLER_0_33_241
*1567 FILLER_0_33_27
*1568 FILLER_0_33_289
*1569 FILLER_0_33_3
*1570 FILLER_0_33_307
*1571 FILLER_0_33_311
*1572 FILLER_0_33_326
*1573 FILLER_0_33_334
*1574 FILLER_0_33_39
*1575 FILLER_0_33_51
*1576 FILLER_0_33_55
*1577 FILLER_0_33_57
*1578 FILLER_0_33_69
*1579 FILLER_0_33_81
*1580 FILLER_0_33_93
*1581 FILLER_0_33_97
*1582 FILLER_0_34_119
*1583 FILLER_0_34_141
*1584 FILLER_0_34_15
*1585 FILLER_0_34_163
*1586 FILLER_0_34_172
*1587 FILLER_0_34_225
*1588 FILLER_0_34_239
*1589 FILLER_0_34_253
*1590 FILLER_0_34_265
*1591 FILLER_0_34_27
*1592 FILLER_0_34_285
*1593 FILLER_0_34_29
*1594 FILLER_0_34_297
*1595 FILLER_0_34_3
*1596 FILLER_0_34_305
*1597 FILLER_0_34_309
*1598 FILLER_0_34_315
*1599 FILLER_0_34_327
*1600 FILLER_0_34_41
*1601 FILLER_0_34_53
*1602 FILLER_0_34_65
*1603 FILLER_0_34_77
*1604 FILLER_0_34_83
*1605 FILLER_0_34_85
*1606 FILLER_0_35_105
*1607 FILLER_0_35_110
*1608 FILLER_0_35_113
*1609 FILLER_0_35_117
*1610 FILLER_0_35_127
*1611 FILLER_0_35_149
*1612 FILLER_0_35_15
*1613 FILLER_0_35_158
*1614 FILLER_0_35_166
*1615 FILLER_0_35_169
*1616 FILLER_0_35_181
*1617 FILLER_0_35_190
*1618 FILLER_0_35_194
*1619 FILLER_0_35_200
*1620 FILLER_0_35_206
*1621 FILLER_0_35_218
*1622 FILLER_0_35_230
*1623 FILLER_0_35_242
*1624 FILLER_0_35_250
*1625 FILLER_0_35_27
*1626 FILLER_0_35_273
*1627 FILLER_0_35_3
*1628 FILLER_0_35_304
*1629 FILLER_0_35_332
*1630 FILLER_0_35_39
*1631 FILLER_0_35_51
*1632 FILLER_0_35_55
*1633 FILLER_0_35_57
*1634 FILLER_0_35_69
*1635 FILLER_0_35_81
*1636 FILLER_0_35_93
*1637 FILLER_0_36_123
*1638 FILLER_0_36_141
*1639 FILLER_0_36_15
*1640 FILLER_0_36_157
*1641 FILLER_0_36_175
*1642 FILLER_0_36_194
*1643 FILLER_0_36_197
*1644 FILLER_0_36_209
*1645 FILLER_0_36_218
*1646 FILLER_0_36_242
*1647 FILLER_0_36_248
*1648 FILLER_0_36_260
*1649 FILLER_0_36_27
*1650 FILLER_0_36_272
*1651 FILLER_0_36_284
*1652 FILLER_0_36_29
*1653 FILLER_0_36_299
*1654 FILLER_0_36_3
*1655 FILLER_0_36_307
*1656 FILLER_0_36_309
*1657 FILLER_0_36_313
*1658 FILLER_0_36_317
*1659 FILLER_0_36_329
*1660 FILLER_0_36_41
*1661 FILLER_0_36_53
*1662 FILLER_0_36_65
*1663 FILLER_0_36_77
*1664 FILLER_0_36_83
*1665 FILLER_0_36_85
*1666 FILLER_0_36_97
*1667 FILLER_0_37_105
*1668 FILLER_0_37_111
*1669 FILLER_0_37_113
*1670 FILLER_0_37_125
*1671 FILLER_0_37_132
*1672 FILLER_0_37_144
*1673 FILLER_0_37_15
*1674 FILLER_0_37_150
*1675 FILLER_0_37_162
*1676 FILLER_0_37_172
*1677 FILLER_0_37_196
*1678 FILLER_0_37_202
*1679 FILLER_0_37_208
*1680 FILLER_0_37_217
*1681 FILLER_0_37_223
*1682 FILLER_0_37_236
*1683 FILLER_0_37_248
*1684 FILLER_0_37_252