*SPEF "ieee 1481-1999"
*DESIGN "tt_um_chisel_pong"
*DATE "09:55:48 Wednesday April 17, 2024"
*VENDOR "The OpenROAD Project"
*PROGRAM "OpenROAD"
*VERSION "0889970d1790a2617e69f253221b8bd7626e51dc"
*DESIGN_FLOW "NAME_SCOPE LOCAL" "PIN_CAP NONE"
*DIVIDER /
*DELIMITER :
*BUS_DELIMITER []
*T_UNIT 1 NS
*C_UNIT 1 PF
*R_UNIT 1 OHM
*L_UNIT 1 HENRY

*NAME_MAP
*3 clk
*4 ena
*5 rst_n
*6 ui_in[0]
*7 ui_in[1]
*8 ui_in[2]
*9 ui_in[3]
*10 ui_in[4]
*11 ui_in[5]
*12 ui_in[6]
*13 ui_in[7]
*14 uio_in[0]
*15 uio_in[1]
*16 uio_in[2]
*17 uio_in[3]
*18 uio_in[4]
*19 uio_in[5]
*20 uio_in[6]
*21 uio_in[7]
*22 net11
*23 net12
*24 net13
*25 net14
*26 net15
*27 net16
*28 net17
*29 net18
*30 uio_out[0]
*31 uio_out[1]
*32 uio_out[2]
*33 uio_out[3]
*34 uio_out[4]
*35 uio_out[5]
*36 uio_out[6]
*37 net10
*38 uo_out[0]
*39 uo_out[1]
*40 uo_out[2]
*41 uo_out[3]
*42 uo_out[4]
*43 uo_out[5]
*44 uo_out[6]
*45 uo_out[7]
*46 ChiselTop\.pong\.ball\._GEN_0\[0\]
*47 ChiselTop\.pong\.ball\._GEN_145\[1\]
*48 ChiselTop\.pong\.ball\._GEN_145\[2\]
*49 ChiselTop\.pong\.ball\._GEN_145\[3\]
*50 ChiselTop\.pong\.ball\._GEN_145\[4\]
*51 ChiselTop\.pong\.ball\._GEN_150\[0\]
*52 ChiselTop\.pong\.ball\._GEN_150\[1\]
*53 ChiselTop\.pong\.ball\._GEN_150\[2\]
*54 ChiselTop\.pong\.ball\._GEN_150\[3\]
*55 ChiselTop\.pong\.ball\._GEN_150\[4\]
*56 ChiselTop\.pong\.ball\.gameIO_rendering_pxlPos_x\[0\]
*57 ChiselTop\.pong\.ball\.gameIO_rendering_pxlPos_x\[1\]
*58 ChiselTop\.pong\.ball\.gameIO_rendering_pxlPos_x\[2\]
*59 ChiselTop\.pong\.ball\.gameIO_rendering_pxlPos_x\[3\]
*60 ChiselTop\.pong\.ball\.gameIO_rendering_pxlPos_x\[4\]
*61 ChiselTop\.pong\.ball\.gameIO_rendering_pxlPos_x\[5\]
*62 ChiselTop\.pong\.ball\.gameIO_rendering_pxlPos_x\[6\]
*63 ChiselTop\.pong\.ball\.gameIO_rendering_pxlPos_x\[7\]
*64 ChiselTop\.pong\.ball\.gameIO_rendering_pxlPos_x\[8\]
*65 ChiselTop\.pong\.ball\.gameIO_rendering_pxlPos_x\[9\]
*66 ChiselTop\.pong\.ball\.gameIO_rendering_pxlPos_y\[0\]
*67 ChiselTop\.pong\.ball\.gameIO_rendering_pxlPos_y\[1\]
*68 ChiselTop\.pong\.ball\.gameIO_rendering_pxlPos_y\[2\]
*69 ChiselTop\.pong\.ball\.gameIO_rendering_pxlPos_y\[3\]
*70 ChiselTop\.pong\.ball\.gameIO_rendering_pxlPos_y\[4\]
*71 ChiselTop\.pong\.ball\.gameIO_rendering_pxlPos_y\[5\]
*72 ChiselTop\.pong\.ball\.gameIO_rendering_pxlPos_y\[6\]
*73 ChiselTop\.pong\.ball\.gameIO_rendering_pxlPos_y\[7\]
*74 ChiselTop\.pong\.ball\.gameIO_rendering_pxlPos_y\[8\]
*75 ChiselTop\.pong\.ball\.gameIO_rendering_pxlPos_y\[9\]
*76 ChiselTop\.pong\.ball\.io_leftPedalPos\[0\]
*77 ChiselTop\.pong\.ball\.io_leftPedalPos\[1\]
*78 ChiselTop\.pong\.ball\.io_leftPedalPos\[2\]
*79 ChiselTop\.pong\.ball\.io_leftPedalPos\[3\]
*80 ChiselTop\.pong\.ball\.io_leftPedalPos\[4\]
*81 ChiselTop\.pong\.ball\.io_leftPedalPos\[5\]
*82 ChiselTop\.pong\.ball\.io_leftPedalPos\[6\]
*83 ChiselTop\.pong\.ball\.io_leftPedalPos\[7\]
*84 ChiselTop\.pong\.ball\.io_leftPedalPos\[8\]
*85 ChiselTop\.pong\.ball\.io_lost_0
*86 ChiselTop\.pong\.ball\.io_lost_1
*87 ChiselTop\.pong\.ball\.io_rightPedalPos\[0\]
*88 ChiselTop\.pong\.ball\.io_rightPedalPos\[1\]
*89 ChiselTop\.pong\.ball\.io_rightPedalPos\[2\]
*90 ChiselTop\.pong\.ball\.io_rightPedalPos\[3\]
*91 ChiselTop\.pong\.ball\.io_rightPedalPos\[4\]
*92 ChiselTop\.pong\.ball\.io_rightPedalPos\[5\]
*93 ChiselTop\.pong\.ball\.io_rightPedalPos\[6\]
*94 ChiselTop\.pong\.ball\.io_rightPedalPos\[7\]
*95 ChiselTop\.pong\.ball\.io_rightPedalPos\[8\]
*96 ChiselTop\.pong\.ball\.lfsr_prng\.io_out_0
*97 ChiselTop\.pong\.ball\.lfsr_prng\.io_out_1
*98 ChiselTop\.pong\.ball\.lfsr_prng\.io_out_2
*99 ChiselTop\.pong\.ball\.lfsr_prng\.io_out_3
*100 ChiselTop\.pong\.ball\.posReg_x\[0\]
*101 ChiselTop\.pong\.ball\.posReg_x\[1\]
*102 ChiselTop\.pong\.ball\.posReg_x\[2\]
*103 ChiselTop\.pong\.ball\.posReg_x\[3\]
*104 ChiselTop\.pong\.ball\.posReg_x\[4\]
*105 ChiselTop\.pong\.ball\.posReg_x\[5\]
*106 ChiselTop\.pong\.ball\.posReg_x\[6\]
*107 ChiselTop\.pong\.ball\.posReg_x\[7\]
*108 ChiselTop\.pong\.ball\.posReg_x\[8\]
*109 ChiselTop\.pong\.ball\.posReg_x\[9\]
*110 ChiselTop\.pong\.ball\.posReg_y\[0\]
*111 ChiselTop\.pong\.ball\.posReg_y\[1\]
*112 ChiselTop\.pong\.ball\.posReg_y\[2\]
*113 ChiselTop\.pong\.ball\.posReg_y\[3\]
*114 ChiselTop\.pong\.ball\.posReg_y\[4\]
*115 ChiselTop\.pong\.ball\.posReg_y\[5\]
*116 ChiselTop\.pong\.ball\.posReg_y\[6\]
*117 ChiselTop\.pong\.ball\.posReg_y\[7\]
*118 ChiselTop\.pong\.ball\.posReg_y\[8\]
*119 ChiselTop\.pong\.ball\.posReg_y\[9\]
*120 ChiselTop\.pong\.btn_debouncer\._reg_T_1\[0\]
*121 ChiselTop\.pong\.btn_debouncer\.reg_\[0\]
*122 ChiselTop\.pong\.btn_debouncer_1\._reg_T_1\[0\]
*123 ChiselTop\.pong\.btn_debouncer_1\.reg_\[0\]
*124 ChiselTop\.pong\.btn_debouncer_2\._reg_T_1\[0\]
*125 ChiselTop\.pong\.btn_debouncer_2\.reg_\[0\]
*126 ChiselTop\.pong\.btn_debouncer_3\._reg_T_1\[0\]
*127 ChiselTop\.pong\.btn_debouncer_3\.reg_\[0\]
*128 ChiselTop\.pong\.gameObjs_3\.io_increaseScore_0
*129 ChiselTop\.pong\.gameObjs_3\.io_increaseScore_1
*130 ChiselTop\.pong\.gameObjs_3\.scores_0\[0\]
*131 ChiselTop\.pong\.gameObjs_3\.scores_0\[1\]
*132 ChiselTop\.pong\.gameObjs_3\.scores_0\[2\]
*133 ChiselTop\.pong\.gameObjs_3\.scores_0\[3\]
*134 ChiselTop\.pong\.gameObjs_3\.scores_0\[4\]
*135 ChiselTop\.pong\.gameObjs_3\.scores_0\[5\]
*136 ChiselTop\.pong\.gameObjs_3\.scores_0\[6\]
*137 ChiselTop\.pong\.gameObjs_3\.scores_1\[0\]
*138 ChiselTop\.pong\.gameObjs_3\.scores_1\[1\]
*139 ChiselTop\.pong\.gameObjs_3\.scores_1\[2\]
*140 ChiselTop\.pong\.gameObjs_3\.scores_1\[3\]
*141 ChiselTop\.pong\.gameObjs_3\.scores_1\[4\]
*142 ChiselTop\.pong\.gameObjs_3\.scores_1\[5\]
*143 ChiselTop\.pong\.gameObjs_3\.scores_1\[6\]
*144 ChiselTop\.pong\.io_hSync
*145 ChiselTop\.pong\.io_vSync
*146 ChiselTop\.pong\.tick_REG
*147 ChiselTop\.pong\.vgaTimer\.pxlTick_tickReg
*148 _0000_
*149 _0001_
*150 _0002_
*151 _0003_
*152 _0004_
*153 _0005_
*154 _0006_
*155 _0007_
*156 _0008_
*157 _0009_
*158 _0010_
*159 _0011_
*160 _0012_
*161 _0013_
*162 _0014_
*163 _0015_
*164 _0016_
*165 _0017_
*166 _0018_
*167 _0019_
*168 _0020_
*169 _0021_
*170 _0022_
*171 _0023_
*172 _0024_
*173 _0025_
*174 _0026_
*175 _0027_
*176 _0028_
*177 _0029_
*178 _0030_
*179 _0031_
*180 _0032_
*181 _0033_
*182 _0034_
*183 _0035_
*184 _0036_
*185 _0037_
*186 _0038_
*187 _0039_
*188 _0040_
*189 _0041_
*190 _0042_
*191 _0043_
*192 _0044_
*193 _0045_
*194 _0046_
*195 _0047_
*196 _0048_
*197 _0049_
*198 _0050_
*199 _0051_
*200 _0052_
*201 _0053_
*202 _0054_
*203 _0055_
*204 _0056_
*205 _0057_
*206 _0058_
*207 _0059_
*208 _0060_
*209 _0061_
*210 _0062_
*211 _0063_
*212 _0064_
*213 _0065_
*214 _0066_
*215 _0067_
*216 _0068_
*217 _0069_
*218 _0070_
*219 _0071_
*220 _0072_
*221 _0073_
*222 _0074_
*223 _0075_
*224 _0076_
*225 _0077_
*226 _0078_
*227 _0079_
*228 _0080_
*229 _0081_
*230 _0082_
*231 _0083_
*232 _0084_
*233 _0085_
*234 _0086_
*235 _0087_
*236 _0088_
*237 _0089_
*238 _0090_
*239 _0091_
*240 _0092_
*241 _0093_
*242 _0094_
*243 _0095_
*244 _0096_
*245 _0097_
*246 _0098_
*247 _0099_
*248 _0100_
*249 _0101_
*250 _0102_
*251 _0103_
*252 _0104_
*253 _0105_
*254 _0106_
*255 _0107_
*256 _0108_
*257 _0109_
*258 _0110_
*259 _0111_
*260 _0112_
*261 _0113_
*262 _0114_
*263 _0115_
*264 _0116_
*265 _0117_
*266 _0118_
*267 _0119_
*268 _0120_
*269 _0121_
*270 _0122_
*271 _0123_
*272 _0124_
*273 _0125_
*274 _0126_
*275 _0127_
*276 _0128_
*277 _0129_
*278 _0130_
*279 _0131_
*280 _0132_
*281 _0133_
*282 _0134_
*283 _0135_
*284 _0136_
*285 _0137_
*286 _0138_
*287 _0139_
*288 _0140_
*289 _0141_
*290 _0142_
*291 _0143_
*292 _0144_
*293 _0145_
*294 _0146_
*295 _0147_
*296 _0148_
*297 _0149_
*298 _0150_
*299 _0151_
*300 _0152_
*301 _0153_
*302 _0154_
*303 _0155_
*304 _0156_
*305 _0157_
*306 _0158_
*307 _0159_
*308 _0160_
*309 _0161_
*310 _0162_
*311 _0163_
*312 _0164_
*313 _0165_
*314 _0166_
*315 _0167_
*316 _0168_
*317 _0169_
*318 _0170_
*319 _0171_
*320 _0172_
*321 _0173_
*322 _0174_
*323 _0175_
*324 _0176_
*325 _0177_
*326 _0178_
*327 _0179_
*328 _0180_
*329 _0181_
*330 _0182_
*331 _0183_
*332 _0184_
*333 _0185_
*334 _0186_
*335 _0187_
*336 _0188_
*337 _0189_
*338 _0190_
*339 _0191_
*340 _0192_
*341 _0193_
*342 _0194_
*343 _0195_
*344 _0196_
*345 _0197_
*346 _0198_
*347 _0199_
*348 _0200_
*349 _0201_
*350 _0202_
*351 _0203_
*352 _0204_
*353 _0205_
*354 _0206_
*355 _0207_
*356 _0208_
*357 _0209_
*358 _0210_
*359 _0211_
*360 _0212_
*361 _0213_
*362 _0214_
*363 _0215_
*364 _0216_
*365 _0217_
*366 _0218_
*367 _0219_
*368 _0220_
*369 _0221_
*370 _0222_
*371 _0223_
*372 _0224_
*373 _0225_
*374 _0226_
*375 _0227_
*376 _0228_
*377 _0229_
*378 _0230_
*379 _0231_
*380 _0232_
*381 _0233_
*382 _0234_
*383 _0235_
*384 _0236_
*385 _0237_
*386 _0238_
*387 _0239_
*388 _0240_
*389 _0241_
*390 _0242_
*391 _0243_
*392 _0244_
*393 _0245_
*394 _0246_
*395 _0247_
*396 _0248_
*397 _0249_
*398 _0250_
*399 _0251_
*400 _0252_
*401 _0253_
*402 _0254_
*403 _0255_
*404 _0256_
*405 _0257_
*406 _0258_
*407 _0259_
*408 _0260_
*409 _0261_
*410 _0262_
*411 _0263_
*412 _0264_
*413 _0265_
*414 _0266_
*415 _0267_
*416 _0268_
*417 _0269_
*418 _0270_
*419 _0271_
*420 _0272_
*421 _0273_
*422 _0274_
*423 _0275_
*424 _0276_
*425 _0277_
*426 _0278_
*427 _0279_
*428 _0280_
*429 _0281_
*430 _0282_
*431 _0283_
*432 _0284_
*433 _0285_
*434 _0286_
*435 _0287_
*436 _0288_
*437 _0289_
*438 _0290_
*439 _0291_
*440 _0292_
*441 _0293_
*442 _0294_
*443 _0295_
*444 _0296_
*445 _0297_
*446 _0298_
*447 _0299_
*448 _0300_
*449 _0301_
*450 _0302_
*451 _0303_
*452 _0304_
*453 _0305_
*454 _0306_
*455 _0307_
*456 _0308_
*457 _0309_
*458 _0310_
*459 _0311_
*460 _0312_
*461 _0313_
*462 _0314_
*463 _0315_
*464 _0316_
*465 _0317_
*466 _0318_
*467 _0319_
*468 _0320_
*469 _0321_
*470 _0322_
*471 _0323_
*472 _0324_
*473 _0325_
*474 _0326_
*475 _0327_
*476 _0328_
*477 _0329_
*478 _0330_
*479 _0331_
*480 _0332_
*481 _0333_
*482 _0334_
*483 _0335_
*484 _0336_
*485 _0337_
*486 _0338_
*487 _0339_
*488 _0340_
*489 _0341_
*490 _0342_
*491 _0343_
*492 _0344_
*493 _0345_
*494 _0346_
*495 _0347_
*496 _0348_
*497 _0349_
*498 _0350_
*499 _0351_
*500 _0352_
*501 _0353_
*502 _0354_
*503 _0355_
*504 _0356_
*505 _0357_
*506 _0358_
*507 _0359_
*508 _0360_
*509 _0361_
*510 _0362_
*511 _0363_
*512 _0364_
*513 _0365_
*514 _0366_
*515 _0367_
*516 _0368_
*517 _0369_
*518 _0370_
*519 _0371_
*520 _0372_
*521 _0373_
*522 _0374_
*523 _0375_
*524 _0376_
*525 _0377_
*526 _0378_
*527 _0379_
*528 _0380_
*529 _0381_
*530 _0382_
*531 _0383_
*532 _0384_
*533 _0385_
*534 _0386_
*535 _0387_
*536 _0388_
*537 _0389_
*538 _0390_
*539 _0391_
*540 _0392_
*541 _0393_
*542 _0394_
*543 _0395_
*544 _0396_
*545 _0397_
*546 _0398_
*547 _0399_
*548 _0400_
*549 _0401_
*550 _0402_
*551 _0403_
*552 _0404_
*553 _0405_
*554 _0406_
*555 _0407_
*556 _0408_
*557 _0409_
*558 _0410_
*559 _0411_
*560 _0412_
*561 _0413_
*562 _0414_
*563 _0415_
*564 _0416_
*565 _0417_
*566 _0418_
*567 _0419_
*568 _0420_
*569 _0421_
*570 _0422_
*571 _0423_
*572 _0424_
*573 _0425_
*574 _0426_
*575 _0427_
*576 _0428_
*577 _0429_
*578 _0430_
*579 _0431_
*580 _0432_
*581 _0433_
*582 _0434_
*583 _0435_
*584 _0436_
*585 _0437_
*586 _0438_
*587 _0439_
*588 _0440_
*589 _0441_
*590 _0442_
*591 _0443_
*592 _0444_
*593 _0445_
*594 _0446_
*595 _0447_
*596 _0448_
*597 _0449_
*598 _0450_
*599 _0451_
*600 _0452_
*601 _0453_
*602 _0454_
*603 _0455_
*604 _0456_
*605 _0457_
*606 _0458_
*607 _0459_
*608 _0460_
*609 _0461_
*610 _0462_
*611 _0463_
*612 _0464_
*613 _0465_
*614 _0466_
*615 _0467_
*616 _0468_
*617 _0469_
*618 _0470_
*619 _0471_
*620 _0472_
*621 _0473_
*622 _0474_
*623 _0475_
*624 _0476_
*625 _0477_
*626 _0478_
*627 _0479_
*628 _0480_
*629 _0481_
*630 _0482_
*631 _0483_
*632 _0484_
*633 _0485_
*634 _0486_
*635 _0487_
*636 _0488_
*637 _0489_
*638 _0490_
*639 _0491_
*640 _0492_
*641 _0493_
*642 _0494_
*643 _0495_
*644 _0496_
*645 _0497_
*646 _0498_
*647 _0499_
*648 _0500_
*649 _0501_
*650 _0502_
*651 _0503_
*652 _0504_
*653 _0505_
*654 _0506_
*655 _0507_
*656 _0508_
*657 _0509_
*658 _0510_
*659 _0511_
*660 _0512_
*661 _0513_
*662 _0514_
*663 _0515_
*664 _0516_
*665 _0517_
*666 _0518_
*667 _0519_
*668 _0520_
*669 _0521_
*670 _0522_
*671 _0523_
*672 _0524_
*673 _0525_
*674 _0526_
*675 _0527_
*676 _0528_
*677 _0529_
*678 _0530_
*679 _0531_
*680 _0532_
*681 _0533_
*682 _0534_
*683 _0535_
*684 _0536_
*685 _0537_
*686 _0538_
*687 _0539_
*688 _0540_
*689 _0541_
*690 _0542_
*691 _0543_
*692 _0544_
*693 _0545_
*694 _0546_
*695 _0547_
*696 _0548_
*697 _0549_
*698 _0550_
*699 _0551_
*700 _0552_
*701 _0553_
*702 _0554_
*703 _0555_
*704 _0556_
*705 _0557_
*706 _0558_
*707 _0559_
*708 _0560_
*709 _0561_
*710 _0562_
*711 _0563_
*712 _0564_
*713 _0565_
*714 _0566_
*715 _0567_
*716 _0568_
*717 _0569_
*718 _0570_
*719 _0571_
*720 _0572_
*721 _0573_
*722 _0574_
*723 _0575_
*724 _0576_
*725 _0577_
*726 _0578_
*727 _0579_
*728 _0580_
*729 _0581_
*730 _0582_
*731 _0583_
*732 _0584_
*733 _0585_
*734 _0586_
*735 _0587_
*736 _0588_
*737 _0589_
*738 _0590_
*739 _0591_
*740 _0592_
*741 _0593_
*742 _0594_
*743 _0595_
*744 _0596_
*745 _0597_
*746 _0598_
*747 _0599_
*748 _0600_
*749 _0601_
*750 _0602_
*751 _0603_
*752 _0604_
*753 _0605_
*754 _0606_
*755 _0607_
*756 _0608_
*757 _0609_
*758 _0610_
*759 _0611_
*760 _0612_
*761 _0613_
*762 _0614_
*763 _0615_
*764 _0616_
*765 _0617_
*766 _0618_
*767 _0619_
*768 _0620_
*769 _0621_
*770 _0622_
*771 _0623_
*772 _0624_
*773 _0625_
*774 _0626_
*775 _0627_
*776 _0628_
*777 _0629_
*778 _0630_
*779 _0631_
*780 _0632_
*781 _0633_
*782 _0634_
*783 _0635_
*784 _0636_
*785 _0637_
*786 _0638_
*787 _0639_
*788 _0640_
*789 _0641_
*790 _0642_
*791 _0643_
*792 _0644_
*793 _0645_
*794 _0646_
*795 _0647_
*796 _0648_
*797 _0649_
*798 _0650_
*799 _0651_
*800 _0652_
*801 _0653_
*802 _0654_
*803 _0655_
*804 _0656_
*805 _0657_
*806 _0658_
*807 _0659_
*808 _0660_
*809 _0661_
*810 _0662_
*811 _0663_
*812 _0664_
*813 _0665_
*814 _0666_
*815 _0667_
*816 _0668_
*817 _0669_
*818 _0670_
*819 _0671_
*820 _0672_
*821 _0673_
*822 _0674_
*823 _0675_
*824 _0676_
*825 _0677_
*826 _0678_
*827 _0679_
*828 _0680_
*829 _0681_
*830 _0682_
*831 _0683_
*832 _0684_
*833 _0685_
*834 _0686_
*835 _0687_
*836 _0688_
*837 _0689_
*838 _0690_
*839 _0691_
*840 _0692_
*841 _0693_
*842 _0694_
*843 _0695_
*844 _0696_
*845 _0697_
*846 _0698_
*847 _0699_
*848 _0700_
*849 _0701_
*850 _0702_
*851 _0703_
*852 _0704_
*853 _0705_
*854 _0706_
*855 _0707_
*856 _0708_
*857 _0709_
*858 _0710_
*859 _0711_
*860 _0712_
*861 _0713_
*862 _0714_
*863 _0715_
*864 _0716_
*865 _0717_
*866 _0718_
*867 _0719_
*868 _0720_
*869 _0721_
*870 _0722_
*871 _0723_
*872 _0724_
*873 _0725_
*874 _0726_
*875 _0727_
*876 _0728_
*877 _0729_
*878 _0730_
*879 _0731_
*880 _0732_
*881 _0733_
*882 _0734_
*883 _0735_
*884 _0736_
*885 _0737_
*886 _0738_
*887 _0739_
*888 _0740_
*889 _0741_
*890 _0742_
*891 _0743_
*892 _0744_
*893 _0745_
*894 _0746_
*895 _0747_
*896 _0748_
*897 _0749_
*898 _0750_
*899 _0751_
*900 _0752_
*901 _0753_
*902 _0754_
*903 _0755_
*904 _0756_
*905 _0757_
*906 _0758_
*907 _0759_
*908 _0760_
*909 _0761_
*910 _0762_
*911 _0763_
*912 _0764_
*913 _0765_
*914 _0766_
*915 _0767_
*916 _0768_
*917 _0769_
*918 _0770_
*919 _0771_
*920 _0772_
*921 _0773_
*922 _0774_
*923 _0775_
*924 _0776_
*925 _0777_
*926 _0778_
*927 _0779_
*928 _0780_
*929 _0781_
*930 _0782_
*931 _0783_
*932 _0784_
*933 _0785_
*934 _0786_
*935 _0787_
*936 _0788_
*937 _0789_
*938 _0790_
*939 _0791_
*940 _0792_
*941 _0793_
*942 _0794_
*943 _0795_
*944 _0796_
*945 _0797_
*946 _0798_
*947 _0799_
*948 _0800_
*949 _0801_
*950 _0802_
*951 _0803_
*952 _0804_
*953 _0805_
*954 _0806_
*955 _0807_
*956 _0808_
*957 _0809_
*958 _0810_
*959 _0811_
*960 _0812_
*961 _0813_
*962 _0814_
*963 _0815_
*964 _0816_
*965 _0817_
*966 _0818_
*967 _0819_
*968 _0820_
*969 _0821_
*970 _0822_
*971 _0823_
*972 _0824_
*973 _0825_
*974 _0826_
*975 _0827_
*976 _0828_
*977 _0829_
*978 _0830_
*979 _0831_
*980 _0832_
*981 _0833_
*982 _0834_
*983 _0835_
*984 _0836_
*985 _0837_
*986 _0838_
*987 _0839_
*988 _0840_
*989 _0841_
*990 _0842_
*991 _0843_
*992 _0844_
*993 _0845_
*994 _0846_
*995 _0847_
*996 _0848_
*997 _0849_
*998 _0850_
*999 _0851_
*1000 _0852_
*1001 _0853_
*1002 _0854_
*1003 _0855_
*1004 _0856_
*1005 _0857_
*1006 _0858_
*1007 _0859_
*1008 _0860_
*1009 _0861_
*1010 _0862_
*1011 _0863_
*1012 _0864_
*1013 _0865_
*1014 _0866_
*1015 _0867_
*1016 _0868_
*1017 _0869_
*1018 _0870_
*1019 _0871_
*1020 _0872_
*1021 _0873_
*1022 _0874_
*1023 _0875_
*1024 _0876_
*1025 _0877_
*1026 _0878_
*1027 _0879_
*1028 _0880_
*1029 _0881_
*1030 _0882_
*1031 _0883_
*1032 _0884_
*1033 _0885_
*1034 _0886_
*1035 _0887_
*1036 _0888_
*1037 _0889_
*1038 _0890_
*1039 _0891_
*1040 _0892_
*1041 _0893_
*1042 _0894_
*1043 _0895_
*1044 _0896_
*1045 _0897_
*1046 _0898_
*1047 _0899_
*1048 _0900_
*1049 _0901_
*1050 _0902_
*1051 _0903_
*1052 _0904_
*1053 _0905_
*1054 _0906_
*1055 _0907_
*1056 _0908_
*1057 _0909_
*1058 _0910_
*1059 _0911_
*1060 _0912_
*1061 _0913_
*1062 _0914_
*1063 _0915_
*1064 _0916_
*1065 _0917_
*1066 _0918_
*1067 _0919_
*1068 _0920_
*1069 _0921_
*1070 _0922_
*1071 _0923_
*1072 _0924_
*1073 _0925_
*1074 _0926_
*1075 _0927_
*1076 _0928_
*1077 _0929_
*1078 _0930_
*1079 _0931_
*1080 _0932_
*1081 _0933_
*1082 _0934_
*1083 _0935_
*1084 _0936_
*1085 _0937_
*1086 _0938_
*1087 _0939_
*1088 _0940_
*1089 _0941_
*1090 _0942_
*1091 _0943_
*1092 _0944_
*1093 _0945_
*1094 _0946_
*1095 _0947_
*1096 _0948_
*1097 _0949_
*1098 _0950_
*1099 _0951_
*1100 _0952_
*1101 _0953_
*1102 _0954_
*1103 _0955_
*1104 _0956_
*1105 _0957_
*1106 _0958_
*1107 _0959_
*1108 _0960_
*1109 _0961_
*1110 _0962_
*1111 _0963_
*1112 _0964_
*1113 _0965_
*1114 _0966_
*1115 _0967_
*1116 _0968_
*1117 _0969_
*1118 _0970_
*1119 _0971_
*1120 _0972_
*1121 _0973_
*1122 _0974_
*1123 _0975_
*1124 _0976_
*1125 _0977_
*1126 _0978_
*1127 _0979_
*1128 _0980_
*1129 _0981_
*1130 _0982_
*1131 _0983_
*1132 _0984_
*1133 _0985_
*1134 _0986_
*1135 _0987_
*1136 _0988_
*1137 _0989_
*1138 _0990_
*1139 _0991_
*1140 _0992_
*1141 _0993_
*1142 _0994_
*1143 _0995_
*1144 _0996_
*1145 _0997_
*1146 _0998_
*1147 _0999_
*1148 _1000_
*1149 _1001_
*1150 _1002_
*1151 _1003_
*1152 _1004_
*1153 _1005_
*1154 _1006_
*1155 _1007_
*1156 _1008_
*1157 _1009_
*1158 _1010_
*1159 _1011_
*1160 _1012_
*1161 _1013_
*1162 _1014_
*1163 _1015_
*1164 _1016_
*1165 _1017_
*1166 _1018_
*1167 _1019_
*1168 _1020_
*1169 _1021_
*1170 _1022_
*1171 _1023_
*1172 _1024_
*1173 _1025_
*1174 _1026_
*1175 _1027_
*1176 _1028_
*1177 _1029_
*1178 _1030_
*1179 _1031_
*1180 _1032_
*1181 _1033_
*1182 _1034_
*1183 _1035_
*1184 _1036_
*1185 _1037_
*1186 _1038_
*1187 _1039_
*1188 _1040_
*1189 _1041_
*1190 _1042_
*1191 _1043_
*1192 _1044_
*1193 _1045_
*1194 _1046_
*1195 _1047_
*1196 _1048_
*1197 _1049_
*1198 _1050_
*1199 _1051_
*1200 _1052_
*1201 _1053_
*1202 _1054_
*1203 _1055_
*1204 _1056_
*1205 _1057_
*1206 _1058_
*1207 _1059_
*1208 _1060_
*1209 _1061_
*1210 _1062_
*1211 _1063_
*1212 _1064_
*1213 _1065_
*1214 _1066_
*1215 _1067_
*1216 _1068_
*1217 _1069_
*1218 _1070_
*1219 _1071_
*1220 _1072_
*1221 _1073_
*1222 _1074_
*1223 _1075_
*1224 _1076_
*1225 _1077_
*1226 _1078_
*1227 _1079_
*1228 _1080_
*1229 _1081_
*1230 _1082_
*1231 _1083_
*1232 _1084_
*1233 _1085_
*1234 _1086_
*1235 _1087_
*1236 _1088_
*1237 _1089_
*1238 _1090_
*1239 _1091_
*1240 _1092_
*1241 _1093_
*1242 _1094_
*1243 _1095_
*1244 _1096_
*1245 _1097_
*1246 _1098_
*1247 _1099_
*1248 _1100_
*1249 _1101_
*1250 _1102_
*1251 _1103_
*1252 _1104_
*1253 _1105_
*1254 _1106_
*1255 _1107_
*1256 _1108_
*1257 _1109_
*1258 _1110_
*1259 _1111_
*1260 _1112_
*1261 _1113_
*1262 _1114_
*1263 _1115_
*1264 _1116_
*1265 _1117_
*1266 _1118_
*1267 _1119_
*1268 _1120_
*1269 _1121_
*1270 _1122_
*1271 _1123_
*1272 _1124_
*1273 _1125_
*1274 _1126_
*1275 _1127_
*1276 _1128_
*1277 _1129_
*1278 _1130_
*1279 _1131_
*1280 _1132_
*1281 _1133_
*1282 _1134_
*1283 _1135_
*1284 _1136_
*1285 _1137_
*1286 _1138_
*1287 _1139_
*1288 _1140_
*1289 _1141_
*1290 _1142_
*1291 _1143_
*1292 _1144_
*1293 _1145_
*1294 _1146_
*1295 _1147_
*1296 _1148_
*1297 _1149_
*1298 _1150_
*1299 _1151_
*1300 _1152_
*1301 _1153_
*1302 _1154_
*1303 _1155_
*1304 _1156_
*1305 _1157_
*1306 _1158_
*1307 _1159_
*1308 _1160_
*1309 _1161_
*1310 _1162_
*1311 _1163_
*1312 _1164_
*1313 _1165_
*1314 _1166_
*1315 _1167_
*1316 _1168_
*1317 _1169_
*1318 _1170_
*1319 _1171_
*1320 _1172_
*1321 _1173_
*1322 _1174_
*1323 _1175_
*1324 _1176_
*1325 _1177_
*1326 _1178_
*1327 _1179_
*1328 _1180_
*1329 _1181_
*1330 _1182_
*1331 _1183_
*1332 _1184_
*1333 _1185_
*1334 _1186_
*1335 _1187_
*1336 _1188_
*1337 _1189_
*1338 _1190_
*1339 _1191_
*1340 _1192_
*1341 _1193_
*1342 _1194_
*1343 _1195_
*1344 _1196_
*1345 _1197_
*1346 _1198_
*1347 _1199_
*1348 _1200_
*1349 _1201_
*1350 _1202_
*1351 _1203_
*1352 _1204_
*1353 _1205_
*1354 _1206_
*1355 _1207_
*1356 _1208_
*1357 _1209_
*1358 _1210_
*1359 _1211_
*1360 _1212_
*1361 _1213_
*1362 _1214_
*1363 _1215_
*1364 _1216_
*1365 _1217_
*1366 _1218_
*1367 _1219_
*1368 _1220_
*1369 _1221_
*1370 _1222_
*1371 _1223_
*1372 _1224_
*1373 _1225_
*1374 _1226_
*1375 _1227_
*1376 _1228_
*1377 _1229_
*1378 _1230_
*1379 _1231_
*1380 _1232_
*1381 _1233_
*1382 _1234_
*1383 _1235_
*1384 _1236_
*1385 _1237_
*1386 _1238_
*1387 _1239_
*1388 _1240_
*1389 _1241_
*1390 _1242_
*1391 _1243_
*1392 _1244_
*1393 _1245_
*1394 _1246_
*1395 _1247_
*1396 _1248_
*1397 _1249_
*1398 _1250_
*1399 _1251_
*1400 _1252_
*1401 _1253_
*1402 _1254_
*1403 _1255_
*1404 _1256_
*1405 _1257_
*1406 _1258_
*1407 _1259_
*1408 _1260_
*1409 _1261_
*1410 _1262_
*1411 _1263_
*1412 _1264_
*1413 _1265_
*1414 _1266_
*1415 _1267_
*1416 _1268_
*1417 _1269_
*1418 _1270_
*1419 _1271_
*1420 _1272_
*1421 _1273_
*1422 _1274_
*1423 _1275_
*1424 _1276_
*1425 _1277_
*1426 _1278_
*1427 _1279_
*1428 _1280_
*1429 _1281_
*1430 _1282_
*1431 _1283_
*1432 _1284_
*1433 _1285_
*1434 _1286_
*1435 clknet_0_clk
*1436 clknet_3_0__leaf_clk
*1437 clknet_3_1__leaf_clk
*1438 clknet_3_2__leaf_clk
*1439 clknet_3_3__leaf_clk
*1440 clknet_3_4__leaf_clk
*1441 clknet_3_5__leaf_clk
*1442 clknet_3_6__leaf_clk
*1443 clknet_3_7__leaf_clk
*1444 net1
*1445 net19
*1446 net2
*1447 net20
*1448 net21
*1449 net22
*1450 net23
*1451 net24
*1452 net25
*1453 net26
*1454 net27
*1455 net28
*1456 net29
*1457 net3
*1458 net30
*1459 net31
*1460 net32
*1461 net33
*1462 net34
*1463 net35
*1464 net36
*1465 net37
*1466 net38
*1467 net39
*1468 net4
*1469 net40
*1470 net41
*1471 net42
*1472 net43
*1473 net44
*1474 net45
*1475 net46
*1476 net5
*1477 net6
*1478 net7
*1479 net8
*1480 net9
*1481 ANTENNA_1
*1482 ANTENNA_2
*1483 ANTENNA_3
*1484 ANTENNA_4
*1485 FILLER_0_0_109
*1486 FILLER_0_0_113
*1487 FILLER_0_0_125
*1488 FILLER_0_0_137
*1489 FILLER_0_0_141
*1490 FILLER_0_0_15
*1491 FILLER_0_0_153
*1492 FILLER_0_0_165
*1493 FILLER_0_0_169
*1494 FILLER_0_0_181
*1495 FILLER_0_0_193
*1496 FILLER_0_0_197
*1497 FILLER_0_0_209
*1498 FILLER_0_0_221
*1499 FILLER_0_0_225
*1500 FILLER_0_0_237
*1501 FILLER_0_0_249
*1502 FILLER_0_0_253
*1503 FILLER_0_0_265
*1504 FILLER_0_0_27
*1505 FILLER_0_0_277
*1506 FILLER_0_0_281
*1507 FILLER_0_0_29
*1508 FILLER_0_0_293
*1509 FILLER_0_0_3
*1510 FILLER_0_0_305
*1511 FILLER_0_0_309
*1512 FILLER_0_0_321
*1513 FILLER_0_0_333
*1514 FILLER_0_0_41
*1515 FILLER_0_0_53
*1516 FILLER_0_0_57
*1517 FILLER_0_0_69
*1518 FILLER_0_0_81
*1519 FILLER_0_0_85
*1520 FILLER_0_0_97
*1521 FILLER_0_10_109
*1522 FILLER_0_10_121
*1523 FILLER_0_10_133
*1524 FILLER_0_10_139
*1525 FILLER_0_10_141
*1526 FILLER_0_10_15
*1527 FILLER_0_10_153
*1528 FILLER_0_10_165
*1529 FILLER_0_10_177
*1530 FILLER_0_10_197
*1531 FILLER_0_10_220
*1532 FILLER_0_10_228
*1533 FILLER_0_10_233
*1534 FILLER_0_10_245
*1535 FILLER_0_10_251
*1536 FILLER_0_10_253
*1537 FILLER_0_10_261
*1538 FILLER_0_10_265
*1539 FILLER_0_10_27
*1540 FILLER_0_10_277
*1541 FILLER_0_10_289
*1542 FILLER_0_10_29
*1543 FILLER_0_10_3
*1544 FILLER_0_10_301
*1545 FILLER_0_10_307
*1546 FILLER_0_10_309
*1547 FILLER_0_10_321
*1548 FILLER_0_10_333
*1549 FILLER_0_10_41
*1550 FILLER_0_10_53
*1551 FILLER_0_10_65
*1552 FILLER_0_10_77
*1553 FILLER_0_10_83
*1554 FILLER_0_10_85
*1555 FILLER_0_10_97
*1556 FILLER_0_11_105
*1557 FILLER_0_11_111
*1558 FILLER_0_11_113
*1559 FILLER_0_11_125
*1560 FILLER_0_11_137
*1561 FILLER_0_11_149
*1562 FILLER_0_11_15
*1563 FILLER_0_11_161
*1564 FILLER_0_11_167
*1565 FILLER_0_11_200
*1566 FILLER_0_11_222
*1567 FILLER_0_11_241
*1568 FILLER_0_11_254
*1569 FILLER_0_11_263
*1570 FILLER_0_11_27
*1571 FILLER_0_11_274
*1572 FILLER_0_11_288
*1573 FILLER_0_11_3
*1574 FILLER_0_11_300
*1575 FILLER_0_11_312
*1576 FILLER_0_11_324
*1577 FILLER_0_11_332
*1578 FILLER_0_11_39
*1579 FILLER_0_11_51
*1580 FILLER_0_11_55
*1581 FILLER_0_11_57
*1582 FILLER_0_11_69
*1583 FILLER_0_11_81
*1584 FILLER_0_11_93
*1585 FILLER_0_12_109
*1586 FILLER_0_12_121
*1587 FILLER_0_12_133
*1588 FILLER_0_12_139
*1589 FILLER_0_12_141
*1590 FILLER_0_12_15
*1591 FILLER_0_12_153
*1592 FILLER_0_12_194
*1593 FILLER_0_12_200
*1594 FILLER_0_12_209
*1595 FILLER_0_12_243
*1596 FILLER_0_12_27
*1597 FILLER_0_12_274
*1598 FILLER_0_12_29
*1599 FILLER_0_12_3
*1600 FILLER_0_12_301
*1601 FILLER_0_12_307
*1602 FILLER_0_12_309
*1603 FILLER_0_12_321
*1604 FILLER_0_12_333
*1605 FILLER_0_12_41
*1606 FILLER_0_12_53
*1607 FILLER_0_12_65
*1608 FILLER_0_12_77
*1609 FILLER_0_12_83
*1610 FILLER_0_12_85
*1611 FILLER_0_12_97
*1612 FILLER_0_13_105
*1613 FILLER_0_13_111
*1614 FILLER_0_13_113
*1615 FILLER_0_13_125
*1616 FILLER_0_13_137
*1617 FILLER_0_13_149
*1618 FILLER_0_13_15
*1619 FILLER_0_13_161
*1620 FILLER_0_13_167
*1621 FILLER_0_13_169
*1622 FILLER_0_13_178
*1623 FILLER_0_13_195
*1624 FILLER_0_13_207
*1625 FILLER_0_13_216
*1626 FILLER_0_13_231
*1627 FILLER_0_13_258
*1628 FILLER_0_13_27
*1629 FILLER_0_13_276
*1630 FILLER_0_13_298
*1631 FILLER_0_13_3
*1632 FILLER_0_13_310
*1633 FILLER_0_13_322
*1634 FILLER_0_13_334
*1635 FILLER_0_13_39
*1636 FILLER_0_13_51
*1637 FILLER_0_13_55
*1638 FILLER_0_13_57
*1639 FILLER_0_13_69
*1640 FILLER_0_13_81
*1641 FILLER_0_13_93
*1642 FILLER_0_14_109
*1643 FILLER_0_14_121
*1644 FILLER_0_14_137
*1645 FILLER_0_14_141
*1646 FILLER_0_14_149
*1647 FILLER_0_14_15
*1648 FILLER_0_14_161
*1649 FILLER_0_14_173
*1650 FILLER_0_14_185
*1651 FILLER_0_14_193
*1652 FILLER_0_14_204
*1653 FILLER_0_14_216
*1654 FILLER_0_14_228
*1655 FILLER_0_14_232
*1656 FILLER_0_14_236
*1657 FILLER_0_14_248
*1658 FILLER_0_14_253
*1659 FILLER_0_14_265
*1660 FILLER_0_14_27
*1661 FILLER_0_14_277
*1662 FILLER_0_14_287
*1663 FILLER_0_14_29
*1664 FILLER_0_14_299
*1665 FILLER_0_14_3
*1666 FILLER_0_14_307
*1667 FILLER_0_14_309
*1668 FILLER_0_14_321
*1669 FILLER_0_14_333
*1670 FILLER_0_14_41
*1671 FILLER_0_14_53
*1672 FILLER_0_14_65
*1673 FILLER_0_14_77
*1674 FILLER_0_14_83
*1675 FILLER_0_14_85
*1676 FILLER_0_14_97
*1677 FILLER_0_15_105
*1678 FILLER_0_15_111
*1679 FILLER_0_15_113
*1680 FILLER_0_15_134
*1681 FILLER_0_15_15
*1682 FILLER_0_15_160
*1683 FILLER_0_15_169
*1684 FILLER_0_15_186
*1685 FILLER_0_15_192
*1686 FILLER_0_15_196
*1687 FILLER_0_15_206
*1688 FILLER_0_15_217
*1689 FILLER_0_15_223
*1690 FILLER_0_15_225
*1691 FILLER_0_15_240
*1692 FILLER_0_15_260
*1693 FILLER_0_15_27
*1694 FILLER_0_15_272
*1695 FILLER_0_15_288
*1696 FILLER_0_15_3
*1697 FILLER_0_15_300
*1698 FILLER_0_15_312
*1699 FILLER_0_15_324
*1700 FILLER_0_15_332
*1701 FILLER_0_15_39
*1702 FILLER_0_15_51
*1703 FILLER_0_15_55
*1704 FILLER_0_15_57
*1705 FILLER_0_15_69
*1706 FILLER_0_15_81
*1707 FILLER_0_15_93
*1708 FILLER_0_16_109
*1709 FILLER_0_16_126
*1710 FILLER_0_16_15
*1711 FILLER_0_16_152
*1712 FILLER_0_16_170
*1713 FILLER_0_16_176
*1714 FILLER_0_16_184
*1715 FILLER_0_16_205
*1716 FILLER_0_16_222
*1717 FILLER_0_16_268
*1718 FILLER_0_16_27
*1719 FILLER_0_16_276
*1720 FILLER_0_16_281
*1721 FILLER_0_16_289
*1722 FILLER_0_16_29
*1723 FILLER_0_16_3
*1724 FILLER_0_16_300
*1725 FILLER_0_16_309
*1726 FILLER_0_16_321
*1727 FILLER_0_16_333
*1728 FILLER_0_16_41
*1729 FILLER_0_16_53
*1730 FILLER_0_16_65
*1731 FILLER_0_16_77
*1732 FILLER_0_16_83
*1733 FILLER_0_16_85
*1734 FILLER_0_16_97
*1735 FILLER_0_17_105
*1736 FILLER_0_17_111
*1737 FILLER_0_17_113
*1738 FILLER_0_17_121
*1739 FILLER_0_17_127
*1740 FILLER_0_17_144
*1741 FILLER_0_17_15
*1742 FILLER_0_17_153
*1743 FILLER_0_17_161
*1744 FILLER_0_17_167
*1745 FILLER_0_17_169
*1746 FILLER_0_17_190
*1747 FILLER_0_17_202
*1748 FILLER_0_17_206
*1749 FILLER_0_17_225
*1750 FILLER_0_17_241
*1751 FILLER_0_17_249
*1752 FILLER_0_17_27
*1753 FILLER_0_17_270
*1754 FILLER_0_17_279
*1755 FILLER_0_17_3
*1756 FILLER_0_17_306
*1757 FILLER_0_17_318
*1758 FILLER_0_17_330
*1759 FILLER_0_17_334
*1760 FILLER_0_17_39
*1761 FILLER_0_17_51
*1762 FILLER_0_17_55
*1763 FILLER_0_17_57
*1764 FILLER_0_17_69
*1765 FILLER_0_17_81
*1766 FILLER_0_17_93
*1767 FILLER_0_18_126
*1768 FILLER_0_18_138
*1769 FILLER_0_18_145
*1770 FILLER_0_18_15
*1771 FILLER_0_18_153
*1772 FILLER_0_18_162
*1773 FILLER_0_18_174
*1774 FILLER_0_18_188
*1775 FILLER_0_18_195
*1776 FILLER_0_18_197
*1777 FILLER_0_18_205
*1778 FILLER_0_18_222
*1779 FILLER_0_18_228
*1780 FILLER_0_18_236
*1781 FILLER_0_18_248
*1782 FILLER_0_18_253
*1783 FILLER_0_18_261
*1784 FILLER_0_18_27
*1785 FILLER_0_18_29
*1786 FILLER_0_18_290
*1787 FILLER_0_18_297
*1788 FILLER_0_18_3
*1789 FILLER_0_18_305
*1790 FILLER_0_18_309
*1791 FILLER_0_18_321
*1792 FILLER_0_18_333
*1793 FILLER_0_18_41
*1794 FILLER_0_18_53
*1795 FILLER_0_18_65
*1796 FILLER_0_18_77
*1797 FILLER_0_18_83
*1798 FILLER_0_18_85
*1799 FILLER_0_18_97
*1800 FILLER_0_19_105
*1801 FILLER_0_19_111
*1802 FILLER_0_19_123
*1803 FILLER_0_19_135
*1804 FILLER_0_19_147
*1805 FILLER_0_19_15
*1806 FILLER_0_19_155
*1807 FILLER_0_19_161
*1808 FILLER_0_19_167
*1809 FILLER_0_19_169
*1810 FILLER_0_19_181
*1811 FILLER_0_19_189
*1812 FILLER_0_19_199
*1813 FILLER_0_19_211
*1814 FILLER_0_19_223
*1815 FILLER_0_19_225
*1816 FILLER_0_19_237
*1817 FILLER_0_19_249
*1818 FILLER_0_19_261
*1819 FILLER_0_19_269
*1820 FILLER_0_19_27
*1821 FILLER_0_19_273
*1822 FILLER_0_19_279
*1823 FILLER_0_19_285
*1824 FILLER_0_19_297
*1825 FILLER_0_19_3
*1826 FILLER_0_19_309
*1827 FILLER_0_19_321
*1828 FILLER_0_19_333
*1829 FILLER_0_19_39
*1830 FILLER_0_19_51
*1831 FILLER_0_19_55
*1832 FILLER_0_19_57
*1833 FILLER_0_19_69
*1834 FILLER_0_19_81
*1835 FILLER_0_19_93
*1836 FILLER_0_1_105
*1837 FILLER_0_1_111
*1838 FILLER_0_1_113