*SPEF "ieee 1481-1999"
*DESIGN "tt_um_chisel_pong"
*DATE "14:44:07 Wednesday April 17, 2024"
*VENDOR "The OpenROAD Project"
*PROGRAM "OpenROAD"
*VERSION "0889970d1790a2617e69f253221b8bd7626e51dc"
*DESIGN_FLOW "NAME_SCOPE LOCAL" "PIN_CAP NONE"
*DIVIDER /
*DELIMITER :
*BUS_DELIMITER []
*T_UNIT 1 NS
*C_UNIT 1 PF
*R_UNIT 1 OHM
*L_UNIT 1 HENRY

*NAME_MAP
*3 clk
*4 ena
*5 rst_n
*6 ui_in[0]
*7 ui_in[1]
*8 ui_in[2]
*9 ui_in[3]
*10 ui_in[4]
*11 ui_in[5]
*12 ui_in[6]
*13 ui_in[7]
*14 uio_in[0]
*15 uio_in[1]
*16 uio_in[2]
*17 uio_in[3]
*18 uio_in[4]
*19 uio_in[5]
*20 uio_in[6]
*21 uio_in[7]
*22 net15
*23 net16
*24 net17
*25 net18
*26 net19
*27 net20
*28 net21
*29 net22
*30 uio_out[0]
*31 uio_out[1]
*32 uio_out[2]
*33 net10
*34 net11
*35 net12
*36 net13
*37 net14
*38 uo_out[0]
*39 uo_out[1]
*40 uo_out[2]
*41 uo_out[3]
*42 uo_out[4]
*43 uo_out[5]
*44 uo_out[6]
*45 uo_out[7]
*46 ChiselTop\.pong\.ball\._GEN_0\[0\]
*47 ChiselTop\.pong\.ball\._GEN_145\[1\]
*48 ChiselTop\.pong\.ball\._GEN_145\[2\]
*49 ChiselTop\.pong\.ball\._GEN_145\[3\]
*50 ChiselTop\.pong\.ball\._GEN_145\[4\]
*51 ChiselTop\.pong\.ball\._GEN_150\[0\]
*52 ChiselTop\.pong\.ball\._GEN_150\[1\]
*53 ChiselTop\.pong\.ball\._GEN_150\[2\]
*54 ChiselTop\.pong\.ball\._GEN_150\[3\]
*55 ChiselTop\.pong\.ball\._GEN_150\[4\]
*56 ChiselTop\.pong\.ball\.gameIO_rendering_pxlPos_x\[0\]
*57 ChiselTop\.pong\.ball\.gameIO_rendering_pxlPos_x\[1\]
*58 ChiselTop\.pong\.ball\.gameIO_rendering_pxlPos_x\[2\]
*59 ChiselTop\.pong\.ball\.gameIO_rendering_pxlPos_x\[3\]
*60 ChiselTop\.pong\.ball\.gameIO_rendering_pxlPos_x\[4\]
*61 ChiselTop\.pong\.ball\.gameIO_rendering_pxlPos_x\[5\]
*62 ChiselTop\.pong\.ball\.gameIO_rendering_pxlPos_x\[6\]
*63 ChiselTop\.pong\.ball\.gameIO_rendering_pxlPos_x\[7\]
*64 ChiselTop\.pong\.ball\.gameIO_rendering_pxlPos_x\[8\]
*65 ChiselTop\.pong\.ball\.gameIO_rendering_pxlPos_x\[9\]
*66 ChiselTop\.pong\.ball\.gameIO_rendering_pxlPos_y\[0\]
*67 ChiselTop\.pong\.ball\.gameIO_rendering_pxlPos_y\[1\]
*68 ChiselTop\.pong\.ball\.gameIO_rendering_pxlPos_y\[2\]
*69 ChiselTop\.pong\.ball\.gameIO_rendering_pxlPos_y\[3\]
*70 ChiselTop\.pong\.ball\.gameIO_rendering_pxlPos_y\[4\]
*71 ChiselTop\.pong\.ball\.gameIO_rendering_pxlPos_y\[5\]
*72 ChiselTop\.pong\.ball\.gameIO_rendering_pxlPos_y\[6\]
*73 ChiselTop\.pong\.ball\.gameIO_rendering_pxlPos_y\[7\]
*74 ChiselTop\.pong\.ball\.gameIO_rendering_pxlPos_y\[8\]
*75 ChiselTop\.pong\.ball\.gameIO_rendering_pxlPos_y\[9\]
*76 ChiselTop\.pong\.ball\.io_leftPedalPos\[0\]
*77 ChiselTop\.pong\.ball\.io_leftPedalPos\[1\]
*78 ChiselTop\.pong\.ball\.io_leftPedalPos\[2\]
*79 ChiselTop\.pong\.ball\.io_leftPedalPos\[3\]
*80 ChiselTop\.pong\.ball\.io_leftPedalPos\[4\]
*81 ChiselTop\.pong\.ball\.io_leftPedalPos\[5\]
*82 ChiselTop\.pong\.ball\.io_leftPedalPos\[6\]
*83 ChiselTop\.pong\.ball\.io_leftPedalPos\[7\]
*84 ChiselTop\.pong\.ball\.io_leftPedalPos\[8\]
*85 ChiselTop\.pong\.ball\.io_pos_x\[0\]
*86 ChiselTop\.pong\.ball\.io_pos_x\[1\]
*87 ChiselTop\.pong\.ball\.io_pos_x\[2\]
*88 ChiselTop\.pong\.ball\.io_pos_x\[3\]
*89 ChiselTop\.pong\.ball\.io_pos_x\[4\]
*90 ChiselTop\.pong\.ball\.io_pos_x\[5\]
*91 ChiselTop\.pong\.ball\.io_pos_x\[6\]
*92 ChiselTop\.pong\.ball\.io_pos_x\[7\]
*93 ChiselTop\.pong\.ball\.io_pos_x\[8\]
*94 ChiselTop\.pong\.ball\.io_pos_x\[9\]
*95 ChiselTop\.pong\.ball\.io_pos_y\[0\]
*96 ChiselTop\.pong\.ball\.io_pos_y\[1\]
*97 ChiselTop\.pong\.ball\.io_pos_y\[2\]
*98 ChiselTop\.pong\.ball\.io_pos_y\[3\]
*99 ChiselTop\.pong\.ball\.io_pos_y\[4\]
*100 ChiselTop\.pong\.ball\.io_pos_y\[5\]
*101 ChiselTop\.pong\.ball\.io_pos_y\[6\]
*102 ChiselTop\.pong\.ball\.io_pos_y\[7\]
*103 ChiselTop\.pong\.ball\.io_pos_y\[8\]
*104 ChiselTop\.pong\.ball\.io_pos_y\[9\]
*105 ChiselTop\.pong\.ball\.io_rightPedalPos\[0\]
*106 ChiselTop\.pong\.ball\.io_rightPedalPos\[1\]
*107 ChiselTop\.pong\.ball\.io_rightPedalPos\[2\]
*108 ChiselTop\.pong\.ball\.io_rightPedalPos\[3\]
*109 ChiselTop\.pong\.ball\.io_rightPedalPos\[4\]
*110 ChiselTop\.pong\.ball\.io_rightPedalPos\[5\]
*111 ChiselTop\.pong\.ball\.io_rightPedalPos\[6\]
*112 ChiselTop\.pong\.ball\.io_rightPedalPos\[7\]
*113 ChiselTop\.pong\.ball\.io_rightPedalPos\[8\]
*114 ChiselTop\.pong\.ball\.lfsr_prng\.io_out_0
*115 ChiselTop\.pong\.ball\.lfsr_prng\.io_out_1
*116 ChiselTop\.pong\.ball\.lfsr_prng\.io_out_2
*117 ChiselTop\.pong\.ball\.lfsr_prng\.io_out_3
*118 ChiselTop\.pong\.btn_debouncer\._reg_T_1\[0\]
*119 ChiselTop\.pong\.btn_debouncer\.reg_\[0\]
*120 ChiselTop\.pong\.btn_debouncer_1\._reg_T_1\[0\]
*121 ChiselTop\.pong\.btn_debouncer_1\.reg_\[0\]
*122 ChiselTop\.pong\.btn_debouncer_2\._reg_T_1\[0\]
*123 ChiselTop\.pong\.btn_debouncer_2\.reg_\[0\]
*124 ChiselTop\.pong\.btn_debouncer_3\._reg_T_1\[0\]
*125 ChiselTop\.pong\.btn_debouncer_3\.reg_\[0\]
*126 ChiselTop\.pong\.gameObjs_3\.scores_0\[0\]
*127 ChiselTop\.pong\.gameObjs_3\.scores_0\[1\]
*128 ChiselTop\.pong\.gameObjs_3\.scores_0\[2\]
*129 ChiselTop\.pong\.gameObjs_3\.scores_0\[3\]
*130 ChiselTop\.pong\.gameObjs_3\.scores_0\[4\]
*131 ChiselTop\.pong\.gameObjs_3\.scores_0\[5\]
*132 ChiselTop\.pong\.gameObjs_3\.scores_0\[6\]
*133 ChiselTop\.pong\.gameObjs_3\.scores_1\[0\]
*134 ChiselTop\.pong\.gameObjs_3\.scores_1\[1\]
*135 ChiselTop\.pong\.gameObjs_3\.scores_1\[2\]
*136 ChiselTop\.pong\.gameObjs_3\.scores_1\[3\]
*137 ChiselTop\.pong\.gameObjs_3\.scores_1\[4\]
*138 ChiselTop\.pong\.gameObjs_3\.scores_1\[5\]
*139 ChiselTop\.pong\.gameObjs_3\.scores_1\[6\]
*140 ChiselTop\.pong\.io_hSync
*141 ChiselTop\.pong\.io_vSync
*142 ChiselTop\.pong\.tick_REG
*143 ChiselTop\.pong\.vgaTimer\.pxlTick_tickReg
*144 _0000_
*145 _0001_
*146 _0002_
*147 _0003_
*148 _0004_
*149 _0005_
*150 _0006_
*151 _0007_
*152 _0008_
*153 _0009_
*154 _0010_
*155 _0011_
*156 _0012_
*157 _0013_
*158 _0014_
*159 _0015_
*160 _0016_
*161 _0017_
*162 _0018_
*163 _0019_
*164 _0020_
*165 _0021_
*166 _0022_
*167 _0023_
*168 _0024_
*169 _0025_
*170 _0026_
*171 _0027_
*172 _0028_
*173 _0029_
*174 _0030_
*175 _0031_
*176 _0032_
*177 _0033_
*178 _0034_
*179 _0035_
*180 _0036_
*181 _0037_
*182 _0038_
*183 _0039_
*184 _0040_
*185 _0041_
*186 _0042_
*187 _0043_
*188 _0044_
*189 _0045_
*190 _0046_
*191 _0047_
*192 _0048_
*193 _0049_
*194 _0050_
*195 _0051_
*196 _0052_
*197 _0053_
*198 _0054_
*199 _0055_
*200 _0056_
*201 _0057_
*202 _0058_
*203 _0059_
*204 _0060_
*205 _0061_
*206 _0062_
*207 _0063_
*208 _0064_
*209 _0065_
*210 _0066_
*211 _0067_
*212 _0068_
*213 _0069_
*214 _0070_
*215 _0071_
*216 _0072_
*217 _0073_
*218 _0074_
*219 _0075_
*220 _0076_
*221 _0077_
*222 _0078_
*223 _0079_
*224 _0080_
*225 _0081_
*226 _0082_
*227 _0083_
*228 _0084_
*229 _0085_
*230 _0086_
*231 _0087_
*232 _0088_
*233 _0089_
*234 _0090_
*235 _0091_
*236 _0092_
*237 _0093_
*238 _0094_
*239 _0095_
*240 _0096_
*241 _0097_
*242 _0098_
*243 _0099_
*244 _0100_
*245 _0101_
*246 _0102_
*247 _0103_
*248 _0104_
*249 _0105_
*250 _0106_
*251 _0107_
*252 _0108_
*253 _0109_
*254 _0110_
*255 _0111_
*256 _0112_
*257 _0113_
*258 _0114_
*259 _0115_
*260 _0116_
*261 _0117_
*262 _0118_
*263 _0119_
*264 _0120_
*265 _0121_
*266 _0122_
*267 _0123_
*268 _0124_
*269 _0125_
*270 _0126_
*271 _0127_
*272 _0128_
*273 _0129_
*274 _0130_
*275 _0131_
*276 _0132_
*277 _0133_
*278 _0134_
*279 _0135_
*280 _0136_
*281 _0137_
*282 _0138_
*283 _0139_
*284 _0140_
*285 _0141_
*286 _0142_
*287 _0143_
*288 _0144_
*289 _0145_
*290 _0146_
*291 _0147_
*292 _0148_
*293 _0149_
*294 _0150_
*295 _0151_
*296 _0152_
*297 _0153_
*298 _0154_
*299 _0155_
*300 _0156_
*301 _0157_
*302 _0158_
*303 _0159_
*304 _0160_
*305 _0161_
*306 _0162_
*307 _0163_
*308 _0164_
*309 _0165_
*310 _0166_
*311 _0167_
*312 _0168_
*313 _0169_
*314 _0170_
*315 _0171_
*316 _0172_
*317 _0173_
*318 _0174_
*319 _0175_
*320 _0176_
*321 _0177_
*322 _0178_
*323 _0179_
*324 _0180_
*325 _0181_
*326 _0182_
*327 _0183_
*328 _0184_
*329 _0185_
*330 _0186_
*331 _0187_
*332 _0188_
*333 _0189_
*334 _0190_
*335 _0191_
*336 _0192_
*337 _0193_
*338 _0194_
*339 _0195_
*340 _0196_
*341 _0197_
*342 _0198_
*343 _0199_
*344 _0200_
*345 _0201_
*346 _0202_
*347 _0203_
*348 _0204_
*349 _0205_
*350 _0206_
*351 _0207_
*352 _0208_
*353 _0209_
*354 _0210_
*355 _0211_
*356 _0212_
*357 _0213_
*358 _0214_
*359 _0215_
*360 _0216_
*361 _0217_
*362 _0218_
*363 _0219_
*364 _0220_
*365 _0221_
*366 _0222_
*367 _0223_
*368 _0224_
*369 _0225_
*370 _0226_
*371 _0227_
*372 _0228_
*373 _0229_
*374 _0230_
*375 _0231_
*376 _0232_
*377 _0233_
*378 _0234_
*379 _0235_
*380 _0236_
*381 _0237_
*382 _0238_
*383 _0239_
*384 _0240_
*385 _0241_
*386 _0242_
*387 _0243_
*388 _0244_
*389 _0245_
*390 _0246_
*391 _0247_
*392 _0248_
*393 _0249_
*394 _0250_
*395 _0251_
*396 _0252_
*397 _0253_
*398 _0254_
*399 _0255_
*400 _0256_
*401 _0257_
*402 _0258_
*403 _0259_
*404 _0260_
*405 _0261_
*406 _0262_
*407 _0263_
*408 _0264_
*409 _0265_
*410 _0266_
*411 _0267_
*412 _0268_
*413 _0269_
*414 _0270_
*415 _0271_
*416 _0272_
*417 _0273_
*418 _0274_
*419 _0275_
*420 _0276_
*421 _0277_
*422 _0278_
*423 _0279_
*424 _0280_
*425 _0281_
*426 _0282_
*427 _0283_
*428 _0284_
*429 _0285_
*430 _0286_
*431 _0287_
*432 _0288_
*433 _0289_
*434 _0290_
*435 _0291_
*436 _0292_
*437 _0293_
*438 _0294_
*439 _0295_
*440 _0296_
*441 _0297_
*442 _0298_
*443 _0299_
*444 _0300_
*445 _0301_
*446 _0302_
*447 _0303_
*448 _0304_
*449 _0305_
*450 _0306_
*451 _0307_
*452 _0308_
*453 _0309_
*454 _0310_
*455 _0311_
*456 _0312_
*457 _0313_
*458 _0314_
*459 _0315_
*460 _0316_
*461 _0317_
*462 _0318_
*463 _0319_
*464 _0320_
*465 _0321_
*466 _0322_
*467 _0323_
*468 _0324_
*469 _0325_
*470 _0326_
*471 _0327_
*472 _0328_
*473 _0329_
*474 _0330_
*475 _0331_
*476 _0332_
*477 _0333_
*478 _0334_
*479 _0335_
*480 _0336_
*481 _0337_
*482 _0338_
*483 _0339_
*484 _0340_
*485 _0341_
*486 _0342_
*487 _0343_
*488 _0344_
*489 _0345_
*490 _0346_
*491 _0347_
*492 _0348_
*493 _0349_
*494 _0350_
*495 _0351_
*496 _0352_
*497 _0353_
*498 _0354_
*499 _0355_
*500 _0356_
*501 _0357_
*502 _0358_
*503 _0359_
*504 _0360_
*505 _0361_
*506 _0362_
*507 _0363_
*508 _0364_
*509 _0365_
*510 _0366_
*511 _0367_
*512 _0368_
*513 _0369_
*514 _0370_
*515 _0371_
*516 _0372_
*517 _0373_
*518 _0374_
*519 _0375_
*520 _0376_
*521 _0377_
*522 _0378_
*523 _0379_
*524 _0380_
*525 _0381_
*526 _0382_
*527 _0383_
*528 _0384_
*529 _0385_
*530 _0386_
*531 _0387_
*532 _0388_
*533 _0389_
*534 _0390_
*535 _0391_
*536 _0392_
*537 _0393_
*538 _0394_
*539 _0395_
*540 _0396_
*541 _0397_
*542 _0398_
*543 _0399_
*544 _0400_
*545 _0401_
*546 _0402_
*547 _0403_
*548 _0404_
*549 _0405_
*550 _0406_
*551 _0407_
*552 _0408_
*553 _0409_
*554 _0410_
*555 _0411_
*556 _0412_
*557 _0413_
*558 _0414_
*559 _0415_
*560 _0416_
*561 _0417_
*562 _0418_
*563 _0419_
*564 _0420_
*565 _0421_
*566 _0422_
*567 _0423_
*568 _0424_
*569 _0425_
*570 _0426_
*571 _0427_
*572 _0428_
*573 _0429_
*574 _0430_
*575 _0431_
*576 _0432_
*577 _0433_
*578 _0434_
*579 _0435_
*580 _0436_
*581 _0437_
*582 _0438_
*583 _0439_
*584 _0440_
*585 _0441_
*586 _0442_
*587 _0443_
*588 _0444_
*589 _0445_
*590 _0446_
*591 _0447_
*592 _0448_
*593 _0449_
*594 _0450_
*595 _0451_
*596 _0452_
*597 _0453_
*598 _0454_
*599 _0455_
*600 _0456_
*601 _0457_
*602 _0458_
*603 _0459_
*604 _0460_
*605 _0461_
*606 _0462_
*607 _0463_
*608 _0464_
*609 _0465_
*610 _0466_
*611 _0467_
*612 _0468_
*613 _0469_
*614 _0470_
*615 _0471_
*616 _0472_
*617 _0473_
*618 _0474_
*619 _0475_
*620 _0476_
*621 _0477_
*622 _0478_
*623 _0479_
*624 _0480_
*625 _0481_
*626 _0482_
*627 _0483_
*628 _0484_
*629 _0485_
*630 _0486_
*631 _0487_
*632 _0488_
*633 _0489_
*634 _0490_
*635 _0491_
*636 _0492_
*637 _0493_
*638 _0494_
*639 _0495_
*640 _0496_
*641 _0497_
*642 _0498_
*643 _0499_
*644 _0500_
*645 _0501_
*646 _0502_
*647 _0503_
*648 _0504_
*649 _0505_
*650 _0506_
*651 _0507_
*652 _0508_
*653 _0509_
*654 _0510_
*655 _0511_
*656 _0512_
*657 _0513_
*658 _0514_
*659 _0515_
*660 _0516_
*661 _0517_
*662 _0518_
*663 _0519_
*664 _0520_
*665 _0521_
*666 _0522_
*667 _0523_
*668 _0524_
*669 _0525_
*670 _0526_
*671 _0527_
*672 _0528_
*673 _0529_
*674 _0530_
*675 _0531_
*676 _0532_
*677 _0533_
*678 _0534_
*679 _0535_
*680 _0536_
*681 _0537_
*682 _0538_
*683 _0539_
*684 _0540_
*685 _0541_
*686 _0542_
*687 _0543_
*688 _0544_
*689 _0545_
*690 _0546_
*691 _0547_
*692 _0548_
*693 _0549_
*694 _0550_
*695 _0551_
*696 _0552_
*697 _0553_
*698 _0554_
*699 _0555_
*700 _0556_
*701 _0557_
*702 _0558_
*703 _0559_
*704 _0560_
*705 _0561_
*706 _0562_
*707 _0563_
*708 _0564_
*709 _0565_
*710 _0566_
*711 _0567_
*712 _0568_
*713 _0569_
*714 _0570_
*715 _0571_
*716 _0572_
*717 _0573_
*718 _0574_
*719 _0575_
*720 _0576_
*721 _0577_
*722 _0578_
*723 _0579_
*724 _0580_
*725 _0581_
*726 _0582_
*727 _0583_
*728 _0584_
*729 _0585_
*730 _0586_
*731 _0587_
*732 _0588_
*733 _0589_
*734 _0590_
*735 _0591_
*736 _0592_
*737 _0593_
*738 _0594_
*739 _0595_
*740 _0596_
*741 _0597_
*742 _0598_
*743 _0599_
*744 _0600_
*745 _0601_
*746 _0602_
*747 _0603_
*748 _0604_
*749 _0605_
*750 _0606_
*751 _0607_
*752 _0608_
*753 _0609_
*754 _0610_
*755 _0611_
*756 _0612_
*757 _0613_
*758 _0614_
*759 _0615_
*760 _0616_
*761 _0617_
*762 _0618_
*763 _0619_
*764 _0620_
*765 _0621_
*766 _0622_
*767 _0623_
*768 _0624_
*769 _0625_
*770 _0626_
*771 _0627_
*772 _0628_
*773 _0629_
*774 _0630_
*775 _0631_
*776 _0632_
*777 _0633_
*778 _0634_
*779 _0635_
*780 _0636_
*781 _0637_
*782 _0638_
*783 _0639_
*784 _0640_
*785 _0641_
*786 _0642_
*787 _0643_
*788 _0644_
*789 _0645_
*790 _0646_
*791 _0647_
*792 _0648_
*793 _0649_
*794 _0650_
*795 _0651_
*796 _0652_
*797 _0653_
*798 _0654_
*799 _0655_
*800 _0656_
*801 _0657_
*802 _0658_
*803 _0659_
*804 _0660_
*805 _0661_
*806 _0662_
*807 _0663_
*808 _0664_
*809 _0665_
*810 _0666_
*811 _0667_
*812 _0668_
*813 _0669_
*814 _0670_
*815 _0671_
*816 _0672_
*817 _0673_
*818 _0674_
*819 _0675_
*820 _0676_
*821 _0677_
*822 _0678_
*823 _0679_
*824 _0680_
*825 _0681_
*826 _0682_
*827 _0683_
*828 _0684_
*829 _0685_
*830 _0686_
*831 _0687_
*832 _0688_
*833 _0689_
*834 _0690_
*835 _0691_
*836 _0692_
*837 _0693_
*838 _0694_
*839 _0695_
*840 _0696_
*841 _0697_
*842 _0698_
*843 _0699_
*844 _0700_
*845 _0701_
*846 _0702_
*847 _0703_
*848 _0704_
*849 _0705_
*850 _0706_
*851 _0707_
*852 _0708_
*853 _0709_
*854 _0710_
*855 _0711_
*856 _0712_
*857 _0713_
*858 _0714_
*859 _0715_
*860 _0716_
*861 _0717_
*862 _0718_
*863 _0719_
*864 _0720_
*865 _0721_
*866 _0722_
*867 _0723_
*868 _0724_
*869 _0725_
*870 _0726_
*871 _0727_
*872 _0728_
*873 _0729_
*874 _0730_
*875 _0731_
*876 _0732_
*877 _0733_
*878 _0734_
*879 _0735_
*880 _0736_
*881 _0737_
*882 _0738_
*883 _0739_
*884 _0740_
*885 _0741_
*886 _0742_
*887 _0743_
*888 _0744_
*889 _0745_
*890 _0746_
*891 _0747_
*892 _0748_
*893 _0749_
*894 _0750_
*895 _0751_
*896 _0752_
*897 _0753_
*898 _0754_
*899 _0755_
*900 _0756_
*901 _0757_
*902 _0758_
*903 _0759_
*904 _0760_
*905 _0761_
*906 _0762_
*907 _0763_
*908 _0764_
*909 _0765_
*910 _0766_
*911 _0767_
*912 _0768_
*913 _0769_
*914 _0770_
*915 _0771_
*916 _0772_
*917 _0773_
*918 _0774_
*919 _0775_
*920 _0776_
*921 _0777_
*922 _0778_
*923 _0779_
*924 _0780_
*925 _0781_
*926 _0782_
*927 _0783_
*928 _0784_
*929 _0785_
*930 _0786_
*931 _0787_
*932 _0788_
*933 _0789_
*934 _0790_
*935 _0791_
*936 _0792_
*937 _0793_
*938 _0794_
*939 _0795_
*940 _0796_
*941 _0797_
*942 _0798_
*943 _0799_
*944 _0800_
*945 _0801_
*946 _0802_
*947 _0803_
*948 _0804_
*949 _0805_
*950 _0806_
*951 _0807_
*952 _0808_
*953 _0809_
*954 _0810_
*955 _0811_
*956 _0812_
*957 _0813_
*958 _0814_
*959 _0815_
*960 _0816_
*961 _0817_
*962 _0818_
*963 _0819_
*964 _0820_
*965 _0821_
*966 _0822_
*967 _0823_
*968 _0824_
*969 _0825_
*970 _0826_
*971 _0827_
*972 _0828_
*973 _0829_
*974 _0830_
*975 _0831_
*976 _0832_
*977 _0833_
*978 _0834_
*979 _0835_
*980 _0836_
*981 _0837_
*982 _0838_
*983 _0839_
*984 _0840_
*985 _0841_
*986 _0842_
*987 _0843_
*988 _0844_
*989 _0845_
*990 _0846_
*991 _0847_
*992 _0848_
*993 _0849_
*994 _0850_
*995 _0851_
*996 _0852_
*997 _0853_
*998 _0854_
*999 _0855_
*1000 _0856_
*1001 _0857_
*1002 _0858_
*1003 _0859_
*1004 _0860_
*1005 _0861_
*1006 _0862_
*1007 _0863_
*1008 _0864_
*1009 _0865_
*1010 _0866_
*1011 _0867_
*1012 _0868_
*1013 _0869_
*1014 _0870_
*1015 _0871_
*1016 _0872_
*1017 _0873_
*1018 _0874_
*1019 _0875_
*1020 _0876_
*1021 _0877_
*1022 _0878_
*1023 _0879_
*1024 _0880_
*1025 _0881_
*1026 _0882_
*1027 _0883_
*1028 _0884_
*1029 _0885_
*1030 _0886_
*1031 _0887_
*1032 _0888_
*1033 _0889_
*1034 _0890_
*1035 _0891_
*1036 _0892_
*1037 _0893_
*1038 _0894_
*1039 _0895_
*1040 _0896_
*1041 _0897_
*1042 _0898_
*1043 _0899_
*1044 _0900_
*1045 _0901_
*1046 _0902_
*1047 _0903_
*1048 _0904_
*1049 _0905_
*1050 _0906_
*1051 _0907_
*1052 _0908_
*1053 _0909_
*1054 _0910_
*1055 _0911_
*1056 _0912_
*1057 _0913_
*1058 _0914_
*1059 _0915_
*1060 _0916_
*1061 _0917_
*1062 _0918_
*1063 _0919_
*1064 _0920_
*1065 _0921_
*1066 _0922_
*1067 _0923_
*1068 _0924_
*1069 _0925_
*1070 _0926_
*1071 _0927_
*1072 _0928_
*1073 _0929_
*1074 _0930_
*1075 _0931_
*1076 _0932_
*1077 _0933_
*1078 _0934_
*1079 _0935_
*1080 _0936_
*1081 _0937_
*1082 _0938_
*1083 _0939_
*1084 _0940_
*1085 _0941_
*1086 _0942_
*1087 _0943_
*1088 _0944_
*1089 _0945_
*1090 _0946_
*1091 _0947_
*1092 _0948_
*1093 _0949_
*1094 _0950_
*1095 _0951_
*1096 _0952_
*1097 _0953_
*1098 _0954_
*1099 _0955_
*1100 _0956_
*1101 _0957_
*1102 _0958_
*1103 _0959_
*1104 _0960_
*1105 _0961_
*1106 _0962_
*1107 _0963_
*1108 _0964_
*1109 _0965_
*1110 _0966_
*1111 _0967_
*1112 _0968_
*1113 _0969_
*1114 _0970_
*1115 _0971_
*1116 _0972_
*1117 _0973_
*1118 _0974_
*1119 _0975_
*1120 _0976_
*1121 _0977_
*1122 _0978_
*1123 _0979_
*1124 _0980_
*1125 _0981_
*1126 _0982_
*1127 _0983_
*1128 _0984_
*1129 _0985_
*1130 _0986_
*1131 _0987_
*1132 _0988_
*1133 _0989_
*1134 _0990_
*1135 _0991_
*1136 _0992_
*1137 _0993_
*1138 _0994_
*1139 _0995_
*1140 _0996_
*1141 _0997_
*1142 _0998_
*1143 _0999_
*1144 _1000_
*1145 _1001_
*1146 _1002_
*1147 _1003_
*1148 _1004_
*1149 _1005_
*1150 _1006_
*1151 _1007_
*1152 _1008_
*1153 _1009_
*1154 _1010_
*1155 _1011_
*1156 _1012_
*1157 _1013_
*1158 _1014_
*1159 _1015_
*1160 _1016_
*1161 _1017_
*1162 _1018_
*1163 _1019_
*1164 _1020_
*1165 _1021_
*1166 _1022_
*1167 _1023_
*1168 _1024_
*1169 _1025_
*1170 _1026_
*1171 _1027_
*1172 _1028_
*1173 _1029_
*1174 _1030_
*1175 _1031_
*1176 _1032_
*1177 _1033_
*1178 _1034_
*1179 _1035_
*1180 _1036_
*1181 _1037_
*1182 _1038_
*1183 _1039_
*1184 _1040_
*1185 _1041_
*1186 _1042_
*1187 _1043_
*1188 _1044_
*1189 _1045_
*1190 _1046_
*1191 _1047_
*1192 _1048_
*1193 _1049_
*1194 _1050_
*1195 _1051_
*1196 _1052_
*1197 _1053_
*1198 _1054_
*1199 _1055_
*1200 _1056_
*1201 _1057_
*1202 _1058_
*1203 _1059_
*1204 _1060_
*1205 _1061_
*1206 _1062_
*1207 _1063_
*1208 _1064_
*1209 _1065_
*1210 _1066_
*1211 _1067_
*1212 _1068_
*1213 _1069_
*1214 _1070_
*1215 _1071_
*1216 _1072_
*1217 _1073_
*1218 _1074_
*1219 _1075_
*1220 _1076_
*1221 _1077_
*1222 _1078_
*1223 _1079_
*1224 _1080_
*1225 _1081_
*1226 _1082_
*1227 _1083_
*1228 _1084_
*1229 _1085_
*1230 _1086_
*1231 _1087_
*1232 _1088_
*1233 _1089_
*1234 _1090_
*1235 _1091_
*1236 _1092_
*1237 _1093_
*1238 _1094_
*1239 _1095_
*1240 _1096_
*1241 _1097_
*1242 _1098_
*1243 _1099_
*1244 _1100_
*1245 _1101_
*1246 _1102_
*1247 _1103_
*1248 _1104_
*1249 _1105_
*1250 _1106_
*1251 _1107_
*1252 _1108_
*1253 _1109_
*1254 _1110_
*1255 _1111_
*1256 _1112_
*1257 _1113_
*1258 _1114_
*1259 _1115_
*1260 _1116_
*1261 _1117_
*1262 _1118_
*1263 _1119_
*1264 _1120_
*1265 _1121_
*1266 _1122_
*1267 _1123_
*1268 _1124_
*1269 _1125_
*1270 _1126_
*1271 _1127_
*1272 _1128_
*1273 _1129_
*1274 _1130_
*1275 _1131_
*1276 _1132_
*1277 _1133_
*1278 _1134_
*1279 _1135_
*1280 _1136_
*1281 _1137_
*1282 _1138_
*1283 _1139_
*1284 _1140_
*1285 _1141_
*1286 _1142_
*1287 _1143_
*1288 _1144_
*1289 _1145_
*1290 _1146_
*1291 _1147_
*1292 _1148_
*1293 _1149_
*1294 _1150_
*1295 _1151_
*1296 _1152_
*1297 _1153_
*1298 _1154_
*1299 _1155_
*1300 _1156_
*1301 _1157_
*1302 _1158_
*1303 _1159_
*1304 _1160_
*1305 _1161_
*1306 _1162_
*1307 _1163_
*1308 _1164_
*1309 _1165_
*1310 _1166_
*1311 _1167_
*1312 _1168_
*1313 _1169_
*1314 _1170_
*1315 _1171_
*1316 _1172_
*1317 _1173_
*1318 _1174_
*1319 _1175_
*1320 _1176_
*1321 _1177_
*1322 _1178_
*1323 _1179_
*1324 _1180_
*1325 _1181_
*1326 _1182_
*1327 _1183_
*1328 _1184_
*1329 _1185_
*1330 _1186_
*1331 _1187_
*1332 _1188_
*1333 _1189_
*1334 _1190_
*1335 _1191_
*1336 _1192_
*1337 _1193_
*1338 _1194_
*1339 _1195_
*1340 _1196_
*1341 _1197_
*1342 _1198_
*1343 _1199_
*1344 _1200_
*1345 _1201_
*1346 _1202_
*1347 _1203_
*1348 _1204_
*1349 _1205_
*1350 _1206_
*1351 _1207_
*1352 _1208_
*1353 _1209_
*1354 _1210_
*1355 _1211_
*1356 _1212_
*1357 _1213_
*1358 _1214_
*1359 _1215_
*1360 _1216_
*1361 _1217_
*1362 _1218_
*1363 _1219_
*1364 _1220_
*1365 _1221_
*1366 _1222_
*1367 _1223_
*1368 _1224_
*1369 _1225_
*1370 _1226_
*1371 _1227_
*1372 _1228_
*1373 _1229_
*1374 _1230_
*1375 _1231_
*1376 _1232_
*1377 _1233_
*1378 _1234_
*1379 _1235_
*1380 _1236_
*1381 _1237_
*1382 _1238_
*1383 _1239_
*1384 _1240_
*1385 _1241_
*1386 _1242_
*1387 _1243_
*1388 _1244_
*1389 _1245_
*1390 _1246_
*1391 _1247_
*1392 _1248_
*1393 _1249_
*1394 _1250_
*1395 _1251_
*1396 _1252_
*1397 _1253_
*1398 _1254_
*1399 _1255_
*1400 _1256_
*1401 _1257_
*1402 _1258_
*1403 _1259_
*1404 _1260_
*1405 _1261_
*1406 _1262_
*1407 _1263_
*1408 _1264_
*1409 _1265_
*1410 _1266_
*1411 _1267_
*1412 _1268_
*1413 _1269_
*1414 _1270_
*1415 _1271_
*1416 _1272_
*1417 _1273_
*1418 _1274_
*1419 _1275_
*1420 _1276_
*1421 _1277_
*1422 _1278_
*1423 _1279_
*1424 _1280_
*1425 _1281_
*1426 _1282_
*1427 _1283_
*1428 _1284_
*1429 _1285_
*1430 _1286_
*1431 _1287_
*1432 _1288_
*1433 _1289_
*1434 _1290_
*1435 _1291_
*1436 _1292_
*1437 _1293_
*1438 _1294_
*1439 _1295_
*1440 _1296_
*1441 _1297_
*1442 _1298_
*1443 _1299_
*1444 _1300_
*1445 _1301_
*1446 _1302_
*1447 _1303_
*1448 _1304_
*1449 _1305_
*1450 _1306_
*1451 _1307_
*1452 _1308_
*1453 _1309_
*1454 _1310_
*1455 _1311_
*1456 _1312_
*1457 _1313_
*1458 _1314_
*1459 _1315_
*1460 _1316_
*1461 _1317_
*1462 _1318_
*1463 _1319_
*1464 _1320_
*1465 _1321_
*1466 _1322_
*1467 _1323_
*1468 _1324_
*1469 _1325_
*1470 _1326_
*1471 _1327_
*1472 _1328_
*1473 _1329_
*1474 _1330_
*1475 _1331_
*1476 _1332_
*1477 _1333_
*1478 _1334_
*1479 _1335_
*1480 _1336_
*1481 _1337_
*1482 _1338_
*1483 _1339_
*1484 _1340_
*1485 _1341_
*1486 _1342_
*1487 _1343_
*1488 _1344_
*1489 _1345_
*1490 _1346_
*1491 _1347_
*1492 _1348_
*1493 _1349_
*1494 _1350_
*1495 _1351_
*1496 _1352_
*1497 _1353_
*1498 _1354_
*1499 _1355_
*1500 _1356_
*1501 _1357_
*1502 _1358_
*1503 _1359_
*1504 _1360_
*1505 _1361_
*1506 _1362_
*1507 _1363_
*1508 _1364_
*1509 _1365_
*1510 _1366_
*1511 _1367_
*1512 _1368_
*1513 _1369_
*1514 _1370_
*1515 _1371_
*1516 _1372_
*1517 _1373_
*1518 _1374_
*1519 _1375_
*1520 _1376_
*1521 _1377_
*1522 _1378_
*1523 _1379_
*1524 _1380_
*1525 _1381_
*1526 _1382_
*1527 _1383_
*1528 _1384_
*1529 _1385_
*1530 _1386_
*1531 _1387_
*1532 _1388_
*1533 _1389_
*1534 _1390_
*1535 _1391_
*1536 _1392_
*1537 _1393_
*1538 _1394_
*1539 _1395_
*1540 _1396_
*1541 _1397_
*1542 _1398_
*1543 _1399_
*1544 _1400_
*1545 _1401_
*1546 _1402_
*1547 _1403_
*1548 _1404_
*1549 _1405_
*1550 _1406_
*1551 _1407_
*1552 _1408_
*1553 _1409_
*1554 _1410_
*1555 _1411_
*1556 _1412_
*1557 _1413_
*1558 _1414_
*1559 _1415_
*1560 _1416_
*1561 _1417_
*1562 _1418_
*1563 _1419_
*1564 _1420_
*1565 _1421_
*1566 _1422_
*1567 _1423_
*1568 _1424_
*1569 _1425_
*1570 _1426_
*1571 _1427_
*1572 _1428_
*1573 _1429_
*1574 _1430_
*1575 _1431_
*1576 _1432_
*1577 _1433_
*1578 _1434_
*1579 _1435_
*1580 _1436_
*1581 _1437_
*1582 _1438_
*1583 _1439_
*1584 _1440_
*1585 _1441_
*1586 _1442_
*1587 _1443_
*1588 _1444_
*1589 _1445_
*1590 _1446_
*1591 _1447_
*1592 _1448_
*1593 _1449_
*1594 _1450_
*1595 _1451_
*1596 _1452_
*1597 _1453_
*1598 _1454_
*1599 _1455_
*1600 _1456_
*1601 _1457_
*1602 _1458_
*1603 _1459_
*1604 _1460_
*1605 _1461_
*1606 _1462_
*1607 _1463_
*1608 _1464_
*1609 _1465_
*1610 _1466_
*1611 _1467_
*1612 _1468_
*1613 _1469_
*1614 _1470_
*1615 _1471_
*1616 _1472_
*1617 _1473_
*1618 _1474_
*1619 _1475_
*1620 _1476_
*1621 _1477_
*1622 _1478_
*1623 _1479_
*1624 _1480_
*1625 _1481_
*1626 _1482_
*1627 _1483_
*1628 _1484_
*1629 _1485_
*1630 _1486_
*1631 _1487_
*1632 _1488_
*1633 _1489_
*1634 _1490_
*1635 _1491_
*1636 _1492_
*1637 _1493_
*1638 _1494_
*1639 _1495_
*1640 _1496_
*1641 _1497_
*1642 _1498_
*1643 _1499_
*1644 _1500_
*1645 _1501_
*1646 _1502_
*1647 _1503_
*1648 _1504_
*1649 _1505_
*1650 _1506_
*1651 _1507_
*1652 _1508_
*1653 _1509_
*1654 _1510_
*1655 _1511_
*1656 _1512_
*1657 _1513_
*1658 _1514_
*1659 _1515_
*1660 _1516_
*1661 _1517_
*1662 _1518_
*1663 _1519_
*1664 _1520_
*1665 _1521_
*1666 _1522_
*1667 _1523_
*1668 _1524_
*1669 _1525_
*1670 _1526_
*1671 _1527_
*1672 _1528_
*1673 _1529_
*1674 _1530_
*1675 _1531_
*1676 _1532_
*1677 _1533_
*1678 _1534_
*1679 _1535_
*1680 _1536_
*1681 _1537_
*1682 _1538_
*1683 _1539_
*1684 _1540_
*1685 _1541_
*1686 _1542_
*1687 _1543_
*1688 _1544_
*1689 _1545_
*1690 _1546_
*1691 _1547_
*1692 _1548_
*1693 _1549_
*1694 _1550_
*1695 _1551_
*1696 _1552_
*1697 _1553_
*1698 _1554_
*1699 _1555_
*1700 _1556_
*1701 _1557_
*1702 _1558_
*1703 _1559_
*1704 _1560_
*1705 _1561_
*1706 _1562_
*1707 _1563_
*1708 _1564_
*1709 _1565_
*1710 _1566_
*1711 _1567_
*1712 _1568_
*1713 _1569_
*1714 _1570_
*1715 _1571_
*1716 _1572_
*1717 _1573_
*1718 _1574_
*1719 _1575_
*1720 _1576_
*1721 _1577_
*1722 _1578_
*1723 _1579_
*1724 _1580_
*1725 _1581_
*1726 _1582_
*1727 _1583_
*1728 _1584_
*1729 _1585_
*1730 _1586_
*1731 _1587_
*1732 _1588_
*1733 _1589_
*1734 _1590_
*1735 _1591_
*1736 _1592_
*1737 _1593_
*1738 _1594_
*1739 _1595_
*1740 _1596_
*1741 _1597_
*1742 _1598_
*1743 _1599_
*1744 _1600_
*1745 _1601_
*1746 _1602_
*1747 _1603_
*1748 _1604_
*1749 _1605_
*1750 _1606_
*1751 _1607_
*1752 _1608_
*1753 _1609_
*1754 _1610_
*1755 _1611_
*1756 _1612_
*1757 _1613_
*1758 _1614_
*1759 clknet_0_clk
*1760 clknet_3_0__leaf_clk
*1761 clknet_3_1__leaf_clk
*1762 clknet_3_2__leaf_clk
*1763 clknet_3_3__leaf_clk
*1764 clknet_3_4__leaf_clk
*1765 clknet_3_5__leaf_clk
*1766 clknet_3_6__leaf_clk
*1767 clknet_3_7__leaf_clk
*1768 net1
*1769 net2
*1770 net23
*1771 net24
*1772 net25
*1773 net26
*1774 net27
*1775 net28
*1776 net29
*1777 net3
*1778 net30
*1779 net31
*1780 net32
*1781 net33
*1782 net34
*1783 net35
*1784 net36
*1785 net37
*1786 net38
*1787 net39
*1788 net4
*1789 net40
*1790 net41
*1791 net42
*1792 net43
*1793 net44
*1794 net45
*1795 net46
*1796 net47
*1797 net48
*1798 net49
*1799 net5
*1800 net50
*1801 net51
*1802 net52
*1803 net53
*1804 net54
*1805 net55
*1806 net6
*1807 net7
*1808 net8
*1809 net9
*1810 FILLER_0_0_109
*1811 FILLER_0_0_113
*1812 FILLER_0_0_125
*1813 FILLER_0_0_137
*1814 FILLER_0_0_141
*1815 FILLER_0_0_15
*1816 FILLER_0_0_153
*1817 FILLER_0_0_165
*1818 FILLER_0_0_169
*1819 FILLER_0_0_181
*1820 FILLER_0_0_193
*1821 FILLER_0_0_197
*1822 FILLER_0_0_209
*1823 FILLER_0_0_221
*1824 FILLER_0_0_225
*1825 FILLER_0_0_237
*1826 FILLER_0_0_249
*1827 FILLER_0_0_253
*1828 FILLER_0_0_265
*1829 FILLER_0_0_27
*1830 FILLER_0_0_277
*1831 FILLER_0_0_281
*1832 FILLER_0_0_29
*1833 FILLER_0_0_293
*1834 FILLER_0_0_3
*1835 FILLER_0_0_305
*1836 FILLER_0_0_309
*1837 FILLER_0_0_321
*1838 FILLER_0_0_333
*1839 FILLER_0_0_41
*1840 FILLER_0_0_53
*1841 FILLER_0_0_57
*1842 FILLER_0_0_69
*1843 FILLER_0_0_81
*1844 FILLER_0_0_85
*1845 FILLER_0_0_97
*1846 FILLER_0_10_125
*1847 FILLER_0_10_135
*1848 FILLER_0_10_139
*1849 FILLER_0_10_141
*1850 FILLER_0_10_15
*1851 FILLER_0_10_153
*1852 FILLER_0_10_162
*1853 FILLER_0_10_175
*1854 FILLER_0_10_181
*1855 FILLER_0_10_193
*1856 FILLER_0_10_197
*1857 FILLER_0_10_203
*1858 FILLER_0_10_215
*1859 FILLER_0_10_221
*1860 FILLER_0_10_233
*1861 FILLER_0_10_245
*1862 FILLER_0_10_251
*1863 FILLER_0_10_253
*1864 FILLER_0_10_265
*1865 FILLER_0_10_27
*1866 FILLER_0_10_277
*1867 FILLER_0_10_289
*1868 FILLER_0_10_29
*1869 FILLER_0_10_3
*1870 FILLER_0_10_301
*1871 FILLER_0_10_307
*1872 FILLER_0_10_309
*1873 FILLER_0_10_321
*1874 FILLER_0_10_333
*1875 FILLER_0_10_41
*1876 FILLER_0_10_53
*1877 FILLER_0_10_65
*1878 FILLER_0_10_77
*1879 FILLER_0_10_83
*1880 FILLER_0_11_105
*1881 FILLER_0_11_111
*1882 FILLER_0_11_113
*1883 FILLER_0_11_117
*1884 FILLER_0_11_134
*1885 FILLER_0_11_15
*1886 FILLER_0_11_151
*1887 FILLER_0_11_157
*1888 FILLER_0_11_178
*1889 FILLER_0_11_193
*1890 FILLER_0_11_201
*1891 FILLER_0_11_215
*1892 FILLER_0_11_223
*1893 FILLER_0_11_242
*1894 FILLER_0_11_254
*1895 FILLER_0_11_266
*1896 FILLER_0_11_27
*1897 FILLER_0_11_278
*1898 FILLER_0_11_281
*1899 FILLER_0_11_293
*1900 FILLER_0_11_3
*1901 FILLER_0_11_305
*1902 FILLER_0_11_317
*1903 FILLER_0_11_329
*1904 FILLER_0_11_39
*1905 FILLER_0_11_51
*1906 FILLER_0_11_55
*1907 FILLER_0_11_57
*1908 FILLER_0_11_69
*1909 FILLER_0_11_81
*1910 FILLER_0_11_87
*1911 FILLER_0_11_91
*1912 FILLER_0_11_99
*1913 FILLER_0_12_109
*1914 FILLER_0_12_113
*1915 FILLER_0_12_121
*1916 FILLER_0_12_141
*1917 FILLER_0_12_15
*1918 FILLER_0_12_158
*1919 FILLER_0_12_170
*1920 FILLER_0_12_182
*1921 FILLER_0_12_193
*1922 FILLER_0_12_197
*1923 FILLER_0_12_219
*1924 FILLER_0_12_231
*1925 FILLER_0_12_243
*1926 FILLER_0_12_251
*1927 FILLER_0_12_253
*1928 FILLER_0_12_265
*1929 FILLER_0_12_27
*1930 FILLER_0_12_277
*1931 FILLER_0_12_289
*1932 FILLER_0_12_29
*1933 FILLER_0_12_3
*1934 FILLER_0_12_301
*1935 FILLER_0_12_307
*1936 FILLER_0_12_309
*1937 FILLER_0_12_321
*1938 FILLER_0_12_333
*1939 FILLER_0_12_41
*1940 FILLER_0_12_53
*1941 FILLER_0_12_65
*1942 FILLER_0_12_77
*1943 FILLER_0_12_83
*1944 FILLER_0_12_85
*1945 FILLER_0_12_97
*1946 FILLER_0_13_100
*1947 FILLER_0_13_111
*1948 FILLER_0_13_130
*1949 FILLER_0_13_15
*1950 FILLER_0_13_167
*1951 FILLER_0_13_174
*1952 FILLER_0_13_194
*1953 FILLER_0_13_202
*1954 FILLER_0_13_218
*1955 FILLER_0_13_255
*1956 FILLER_0_13_267
*1957 FILLER_0_13_27
*1958 FILLER_0_13_279
*1959 FILLER_0_13_281
*1960 FILLER_0_13_293
*1961 FILLER_0_13_3
*1962 FILLER_0_13_305
*1963 FILLER_0_13_317
*1964 FILLER_0_13_329
*1965 FILLER_0_13_39
*1966 FILLER_0_13_51
*1967 FILLER_0_13_55
*1968 FILLER_0_13_57
*1969 FILLER_0_13_69
*1970 FILLER_0_13_81
*1971 FILLER_0_13_85
*1972 FILLER_0_13_91
*1973 FILLER_0_14_123
*1974 FILLER_0_14_135
*1975 FILLER_0_14_139