*SPEF "ieee 1481-1999"
*DESIGN "tt_um_chisel_pong"
*DATE "13:06:46 Friday April 19, 2024"
*VENDOR "The OpenROAD Project"
*PROGRAM "OpenROAD"
*VERSION "0889970d1790a2617e69f253221b8bd7626e51dc"
*DESIGN_FLOW "NAME_SCOPE LOCAL" "PIN_CAP NONE"
*DIVIDER /
*DELIMITER :
*BUS_DELIMITER []
*T_UNIT 1 NS
*C_UNIT 1 PF
*R_UNIT 1 OHM
*L_UNIT 1 HENRY

*NAME_MAP
*3 clk
*4 ena
*5 rst_n
*6 ui_in[0]
*7 ui_in[1]
*8 ui_in[2]
*9 ui_in[3]
*10 ui_in[4]
*11 ui_in[5]
*12 ui_in[6]
*13 ui_in[7]
*14 uio_in[0]
*15 uio_in[1]
*16 uio_in[2]
*17 uio_in[3]
*18 uio_in[4]
*19 uio_in[5]
*20 uio_in[6]
*21 uio_in[7]
*22 net11
*23 net12
*24 net13
*25 net14
*26 net15
*27 net16
*28 net17
*29 net18
*30 uio_out[0]
*31 uio_out[1]
*32 uio_out[2]
*33 uio_out[3]
*34 uio_out[4]
*35 uio_out[5]
*36 uio_out[6]
*37 uio_out[7]
*38 uo_out[0]
*39 uo_out[1]
*40 uo_out[2]
*41 uo_out[3]
*42 uo_out[4]
*43 uo_out[5]
*44 uo_out[6]
*45 uo_out[7]
*46 ChiselTop\.pong\.ball\._GEN_0\[0\]
*47 ChiselTop\.pong\.ball\._GEN_147\[1\]
*48 ChiselTop\.pong\.ball\._GEN_147\[2\]
*49 ChiselTop\.pong\.ball\._GEN_147\[3\]
*50 ChiselTop\.pong\.ball\._GEN_147\[4\]
*51 ChiselTop\.pong\.ball\._GEN_148\[0\]
*52 ChiselTop\.pong\.ball\._GEN_148\[1\]
*53 ChiselTop\.pong\.ball\._GEN_148\[2\]
*54 ChiselTop\.pong\.ball\._GEN_148\[3\]
*55 ChiselTop\.pong\.ball\._GEN_148\[4\]
*56 ChiselTop\.pong\.ball\._T_21\[0\]
*57 ChiselTop\.pong\.ball\._T_21\[1\]
*58 ChiselTop\.pong\.ball\._T_21\[2\]
*59 ChiselTop\.pong\.ball\._T_21\[3\]
*60 ChiselTop\.pong\.ball\._T_21\[4\]
*61 ChiselTop\.pong\.ball\._T_21\[5\]
*62 ChiselTop\.pong\.ball\._T_21\[6\]
*63 ChiselTop\.pong\.ball\._T_21\[7\]
*64 ChiselTop\.pong\.ball\._T_21\[8\]
*65 ChiselTop\.pong\.ball\._T_2\[0\]
*66 ChiselTop\.pong\.ball\._T_2\[1\]
*67 ChiselTop\.pong\.ball\._T_2\[2\]
*68 ChiselTop\.pong\.ball\._T_2\[3\]
*69 ChiselTop\.pong\.ball\._T_2\[4\]
*70 ChiselTop\.pong\.ball\._T_2\[5\]
*71 ChiselTop\.pong\.ball\._T_2\[6\]
*72 ChiselTop\.pong\.ball\._T_2\[7\]
*73 ChiselTop\.pong\.ball\._T_2\[8\]
*74 ChiselTop\.pong\.ball\._T_2\[9\]
*75 ChiselTop\.pong\.ball\._T_4\[0\]
*76 ChiselTop\.pong\.ball\._T_4\[1\]
*77 ChiselTop\.pong\.ball\._T_4\[2\]
*78 ChiselTop\.pong\.ball\._T_4\[3\]
*79 ChiselTop\.pong\.ball\._T_4\[4\]
*80 ChiselTop\.pong\.ball\._T_4\[5\]
*81 ChiselTop\.pong\.ball\._T_4\[6\]
*82 ChiselTop\.pong\.ball\._T_4\[7\]
*83 ChiselTop\.pong\.ball\._T_4\[8\]
*84 ChiselTop\.pong\.ball\.gameIO_rendering_pxlPos_x\[0\]
*85 ChiselTop\.pong\.ball\.gameIO_rendering_pxlPos_x\[1\]
*86 ChiselTop\.pong\.ball\.gameIO_rendering_pxlPos_x\[2\]
*87 ChiselTop\.pong\.ball\.gameIO_rendering_pxlPos_x\[3\]
*88 ChiselTop\.pong\.ball\.gameIO_rendering_pxlPos_x\[4\]
*89 ChiselTop\.pong\.ball\.gameIO_rendering_pxlPos_x\[5\]
*90 ChiselTop\.pong\.ball\.gameIO_rendering_pxlPos_x\[6\]
*91 ChiselTop\.pong\.ball\.gameIO_rendering_pxlPos_x\[7\]
*92 ChiselTop\.pong\.ball\.gameIO_rendering_pxlPos_x\[8\]
*93 ChiselTop\.pong\.ball\.gameIO_rendering_pxlPos_x\[9\]
*94 ChiselTop\.pong\.ball\.gameIO_rendering_pxlPos_y\[0\]
*95 ChiselTop\.pong\.ball\.gameIO_rendering_pxlPos_y\[1\]
*96 ChiselTop\.pong\.ball\.gameIO_rendering_pxlPos_y\[2\]
*97 ChiselTop\.pong\.ball\.gameIO_rendering_pxlPos_y\[3\]
*98 ChiselTop\.pong\.ball\.gameIO_rendering_pxlPos_y\[4\]
*99 ChiselTop\.pong\.ball\.gameIO_rendering_pxlPos_y\[5\]
*100 ChiselTop\.pong\.ball\.gameIO_rendering_pxlPos_y\[6\]
*101 ChiselTop\.pong\.ball\.gameIO_rendering_pxlPos_y\[7\]
*102 ChiselTop\.pong\.ball\.gameIO_rendering_pxlPos_y\[8\]
*103 ChiselTop\.pong\.ball\.gameIO_rendering_pxlPos_y\[9\]
*104 ChiselTop\.pong\.ball\.io_lost_0
*105 ChiselTop\.pong\.ball\.io_lost_1
*106 ChiselTop\.pong\.ball\.io_pos_x\[0\]
*107 ChiselTop\.pong\.ball\.io_pos_x\[1\]
*108 ChiselTop\.pong\.ball\.io_pos_x\[2\]
*109 ChiselTop\.pong\.ball\.io_pos_x\[3\]
*110 ChiselTop\.pong\.ball\.io_pos_x\[4\]
*111 ChiselTop\.pong\.ball\.io_pos_x\[5\]
*112 ChiselTop\.pong\.ball\.io_pos_x\[6\]
*113 ChiselTop\.pong\.ball\.io_pos_x\[7\]
*114 ChiselTop\.pong\.ball\.io_pos_x\[8\]
*115 ChiselTop\.pong\.ball\.io_pos_x\[9\]
*116 ChiselTop\.pong\.ball\.lfsr_prng\.io_out_0
*117 ChiselTop\.pong\.ball\.lfsr_prng\.io_out_1
*118 ChiselTop\.pong\.ball\.lfsr_prng\.io_out_2
*119 ChiselTop\.pong\.ball\.lfsr_prng\.io_out_3
*120 ChiselTop\.pong\.btn_debouncer\._reg_T_1\[0\]
*121 ChiselTop\.pong\.btn_debouncer\.io_tick
*122 ChiselTop\.pong\.btn_debouncer\.reg_\[0\]
*123 ChiselTop\.pong\.btn_debouncer_1\._reg_T_1\[0\]
*124 ChiselTop\.pong\.btn_debouncer_1\.reg_\[0\]
*125 ChiselTop\.pong\.btn_debouncer_2\._reg_T_1\[0\]
*126 ChiselTop\.pong\.btn_debouncer_2\.reg_\[0\]
*127 ChiselTop\.pong\.btn_debouncer_3\._reg_T_1\[0\]
*128 ChiselTop\.pong\.btn_debouncer_3\.reg_\[0\]
*129 ChiselTop\.pong\.gameObjs_3\.scores_0\[0\]
*130 ChiselTop\.pong\.gameObjs_3\.scores_0\[1\]
*131 ChiselTop\.pong\.gameObjs_3\.scores_0\[2\]
*132 ChiselTop\.pong\.gameObjs_3\.scores_0\[3\]
*133 ChiselTop\.pong\.gameObjs_3\.scores_0\[4\]
*134 ChiselTop\.pong\.gameObjs_3\.scores_0\[5\]
*135 ChiselTop\.pong\.gameObjs_3\.scores_0\[6\]
*136 ChiselTop\.pong\.gameObjs_3\.scores_1\[0\]
*137 ChiselTop\.pong\.gameObjs_3\.scores_1\[1\]
*138 ChiselTop\.pong\.gameObjs_3\.scores_1\[2\]
*139 ChiselTop\.pong\.gameObjs_3\.scores_1\[3\]
*140 ChiselTop\.pong\.gameObjs_3\.scores_1\[4\]
*141 ChiselTop\.pong\.gameObjs_3\.scores_1\[5\]
*142 ChiselTop\.pong\.gameObjs_3\.scores_1\[6\]
*143 ChiselTop\.pong\.io_hSync
*144 ChiselTop\.pong\.io_vSync
*145 ChiselTop\.pong\.tick_REG
*146 ChiselTop\.pong\.vgaTimer\.pxlTick_tickReg
*147 _0000_
*148 _0001_
*149 _0002_
*150 _0003_
*151 _0004_
*152 _0005_
*153 _0006_
*154 _0007_
*155 _0008_
*156 _0009_
*157 _0010_
*158 _0011_
*159 _0012_
*160 _0013_
*161 _0014_
*162 _0015_
*163 _0016_
*164 _0017_
*165 _0018_
*166 _0019_
*167 _0020_
*168 _0021_
*169 _0022_
*170 _0023_
*171 _0024_
*172 _0025_
*173 _0026_
*174 _0027_
*175 _0028_
*176 _0029_
*177 _0030_
*178 _0031_
*179 _0032_
*180 _0033_
*181 _0034_
*182 _0035_
*183 _0036_
*184 _0037_
*185 _0038_
*186 _0039_
*187 _0040_
*188 _0041_
*189 _0042_
*190 _0043_
*191 _0044_
*192 _0045_
*193 _0046_
*194 _0047_
*195 _0048_
*196 _0049_
*197 _0050_
*198 _0051_
*199 _0052_
*200 _0053_
*201 _0054_
*202 _0055_
*203 _0056_
*204 _0057_
*205 _0058_
*206 _0059_
*207 _0060_
*208 _0061_
*209 _0062_
*210 _0063_
*211 _0064_
*212 _0065_
*213 _0066_
*214 _0067_
*215 _0068_
*216 _0069_
*217 _0070_
*218 _0071_
*219 _0072_
*220 _0073_
*221 _0074_
*222 _0075_
*223 _0076_
*224 _0077_
*225 _0078_
*226 _0079_
*227 _0080_
*228 _0081_
*229 _0082_
*230 _0083_
*231 _0084_
*232 _0085_
*233 _0086_
*234 _0087_
*235 _0088_
*236 _0089_
*237 _0090_
*238 _0091_
*239 _0092_
*240 _0093_
*241 _0094_
*242 _0095_
*243 _0096_
*244 _0097_
*245 _0098_
*246 _0099_
*247 _0100_
*248 _0101_
*249 _0102_
*250 _0103_
*251 _0104_
*252 _0105_
*253 _0106_
*254 _0107_
*255 _0108_
*256 _0109_
*257 _0110_
*258 _0111_
*259 _0112_
*260 _0113_
*261 _0114_
*262 _0115_
*263 _0116_
*264 _0117_
*265 _0118_
*266 _0119_
*267 _0120_
*268 _0121_
*269 _0122_
*270 _0123_
*271 _0124_
*272 _0125_
*273 _0126_
*274 _0127_
*275 _0128_
*276 _0129_
*277 _0130_
*278 _0131_
*279 _0132_
*280 _0133_
*281 _0134_
*282 _0135_
*283 _0136_
*284 _0137_
*285 _0138_
*286 _0139_
*287 _0140_
*288 _0141_
*289 _0142_
*290 _0143_
*291 _0144_
*292 _0145_
*293 _0146_
*294 _0147_
*295 _0148_
*296 _0149_
*297 _0150_
*298 _0151_
*299 _0152_
*300 _0153_
*301 _0154_
*302 _0155_
*303 _0156_
*304 _0157_
*305 _0158_
*306 _0159_
*307 _0160_
*308 _0161_
*309 _0162_
*310 _0163_
*311 _0164_
*312 _0165_
*313 _0166_
*314 _0167_
*315 _0168_
*316 _0169_
*317 _0170_
*318 _0171_
*319 _0172_
*320 _0173_
*321 _0174_
*322 _0175_
*323 _0176_
*324 _0177_
*325 _0178_
*326 _0179_
*327 _0180_
*328 _0181_
*329 _0182_
*330 _0183_
*331 _0184_
*332 _0185_
*333 _0186_
*334 _0187_
*335 _0188_
*336 _0189_
*337 _0190_
*338 _0191_
*339 _0192_
*340 _0193_
*341 _0194_
*342 _0195_
*343 _0196_
*344 _0197_
*345 _0198_
*346 _0199_
*347 _0200_
*348 _0201_
*349 _0202_
*350 _0203_
*351 _0204_
*352 _0205_
*353 _0206_
*354 _0207_
*355 _0208_
*356 _0209_
*357 _0210_
*358 _0211_
*359 _0212_
*360 _0213_
*361 _0214_
*362 _0215_
*363 _0216_
*364 _0217_
*365 _0218_
*366 _0219_
*367 _0220_
*368 _0221_
*369 _0222_
*370 _0223_
*371 _0224_
*372 _0225_
*373 _0226_
*374 _0227_
*375 _0228_
*376 _0229_
*377 _0230_
*378 _0231_
*379 _0232_
*380 _0233_
*381 _0234_
*382 _0235_
*383 _0236_
*384 _0237_
*385 _0238_
*386 _0239_
*387 _0240_
*388 _0241_
*389 _0242_
*390 _0243_
*391 _0244_
*392 _0245_
*393 _0246_
*394 _0247_
*395 _0248_
*396 _0249_
*397 _0250_
*398 _0251_
*399 _0252_
*400 _0253_
*401 _0254_
*402 _0255_
*403 _0256_
*404 _0257_
*405 _0258_
*406 _0259_
*407 _0260_
*408 _0261_
*409 _0262_
*410 _0263_
*411 _0264_
*412 _0265_
*413 _0266_
*414 _0267_
*415 _0268_
*416 _0269_
*417 _0270_
*418 _0271_
*419 _0272_
*420 _0273_
*421 _0274_
*422 _0275_
*423 _0276_
*424 _0277_
*425 _0278_
*426 _0279_
*427 _0280_
*428 _0281_
*429 _0282_
*430 _0283_
*431 _0284_
*432 _0285_
*433 _0286_
*434 _0287_
*435 _0288_
*436 _0289_
*437 _0290_
*438 _0291_
*439 _0292_
*440 _0293_
*441 _0294_
*442 _0295_
*443 _0296_
*444 _0297_
*445 _0298_
*446 _0299_
*447 _0300_
*448 _0301_
*449 _0302_
*450 _0303_
*451 _0304_
*452 _0305_
*453 _0306_
*454 _0307_
*455 _0308_
*456 _0309_
*457 _0310_
*458 _0311_
*459 _0312_
*460 _0313_
*461 _0314_
*462 _0315_
*463 _0316_
*464 _0317_
*465 _0318_
*466 _0319_
*467 _0320_
*468 _0321_
*469 _0322_
*470 _0323_
*471 _0324_
*472 _0325_
*473 _0326_
*474 _0327_
*475 _0328_
*476 _0329_
*477 _0330_
*478 _0331_
*479 _0332_
*480 _0333_
*481 _0334_
*482 _0335_
*483 _0336_
*484 _0337_
*485 _0338_
*486 _0339_
*487 _0340_
*488 _0341_
*489 _0342_
*490 _0343_
*491 _0344_
*492 _0345_
*493 _0346_
*494 _0347_
*495 _0348_
*496 _0349_
*497 _0350_
*498 _0351_
*499 _0352_
*500 _0353_
*501 _0354_
*502 _0355_
*503 _0356_
*504 _0357_
*505 _0358_
*506 _0359_
*507 _0360_
*508 _0361_
*509 _0362_
*510 _0363_
*511 _0364_
*512 _0365_
*513 _0366_
*514 _0367_
*515 _0368_
*516 _0369_
*517 _0370_
*518 _0371_
*519 _0372_
*520 _0373_
*521 _0374_
*522 _0375_
*523 _0376_
*524 _0377_
*525 _0378_
*526 _0379_
*527 _0380_
*528 _0381_
*529 _0382_
*530 _0383_
*531 _0384_
*532 _0385_
*533 _0386_
*534 _0387_
*535 _0388_
*536 _0389_
*537 _0390_
*538 _0391_
*539 _0392_
*540 _0393_
*541 _0394_
*542 _0395_
*543 _0396_
*544 _0397_
*545 _0398_
*546 _0399_
*547 _0400_
*548 _0401_
*549 _0402_
*550 _0403_
*551 _0404_
*552 _0405_
*553 _0406_
*554 _0407_
*555 _0408_
*556 _0409_
*557 _0410_
*558 _0411_
*559 _0412_
*560 _0413_
*561 _0414_
*562 _0415_
*563 _0416_
*564 _0417_
*565 _0418_
*566 _0419_
*567 _0420_
*568 _0421_
*569 _0422_
*570 _0423_
*571 _0424_
*572 _0425_
*573 _0426_
*574 _0427_
*575 _0428_
*576 _0429_
*577 _0430_
*578 _0431_
*579 _0432_
*580 _0433_
*581 _0434_
*582 _0435_
*583 _0436_
*584 _0437_
*585 _0438_
*586 _0439_
*587 _0440_
*588 _0441_
*589 _0442_
*590 _0443_
*591 _0444_
*592 _0445_
*593 _0446_
*594 _0447_
*595 _0448_
*596 _0449_
*597 _0450_
*598 _0451_
*599 _0452_
*600 _0453_
*601 _0454_
*602 _0455_
*603 _0456_
*604 _0457_
*605 _0458_
*606 _0459_
*607 _0460_
*608 _0461_
*609 _0462_
*610 _0463_
*611 _0464_
*612 _0465_
*613 _0466_
*614 _0467_
*615 _0468_
*616 _0469_
*617 _0470_
*618 _0471_
*619 _0472_
*620 _0473_
*621 _0474_
*622 _0475_
*623 _0476_
*624 _0477_
*625 _0478_
*626 _0479_
*627 _0480_
*628 _0481_
*629 _0482_
*630 _0483_
*631 _0484_
*632 _0485_
*633 _0486_
*634 _0487_
*635 _0488_
*636 _0489_
*637 _0490_
*638 _0491_
*639 _0492_
*640 _0493_
*641 _0494_
*642 _0495_
*643 _0496_
*644 _0497_
*645 _0498_
*646 _0499_
*647 _0500_
*648 _0501_
*649 _0502_
*650 _0503_
*651 _0504_
*652 _0505_
*653 _0506_
*654 _0507_
*655 _0508_
*656 _0509_
*657 _0510_
*658 _0511_
*659 _0512_
*660 _0513_
*661 _0514_
*662 _0515_
*663 _0516_
*664 _0517_
*665 _0518_
*666 _0519_
*667 _0520_
*668 _0521_
*669 _0522_
*670 _0523_
*671 _0524_
*672 _0525_
*673 _0526_
*674 _0527_
*675 _0528_
*676 _0529_
*677 _0530_
*678 _0531_
*679 _0532_
*680 _0533_
*681 _0534_
*682 _0535_
*683 _0536_
*684 _0537_
*685 _0538_
*686 _0539_
*687 _0540_
*688 _0541_
*689 _0542_
*690 _0543_
*691 _0544_
*692 _0545_
*693 _0546_
*694 _0547_
*695 _0548_
*696 _0549_
*697 _0550_
*698 _0551_
*699 _0552_
*700 _0553_
*701 _0554_
*702 _0555_
*703 _0556_
*704 _0557_
*705 _0558_
*706 _0559_
*707 _0560_
*708 _0561_
*709 _0562_
*710 _0563_
*711 _0564_
*712 _0565_
*713 _0566_
*714 _0567_
*715 _0568_
*716 _0569_
*717 _0570_
*718 _0571_
*719 _0572_
*720 _0573_
*721 _0574_
*722 _0575_
*723 _0576_
*724 _0577_
*725 _0578_
*726 _0579_
*727 _0580_
*728 _0581_
*729 _0582_
*730 _0583_
*731 _0584_
*732 _0585_
*733 _0586_
*734 _0587_
*735 _0588_
*736 _0589_
*737 _0590_
*738 _0591_
*739 _0592_
*740 _0593_
*741 _0594_
*742 _0595_
*743 _0596_
*744 _0597_
*745 _0598_
*746 _0599_
*747 _0600_
*748 _0601_
*749 _0602_
*750 _0603_
*751 _0604_
*752 _0605_
*753 _0606_
*754 _0607_
*755 _0608_
*756 _0609_
*757 _0610_
*758 _0611_
*759 _0612_
*760 _0613_
*761 _0614_
*762 _0615_
*763 _0616_
*764 _0617_
*765 _0618_
*766 _0619_
*767 _0620_
*768 _0621_
*769 _0622_
*770 _0623_
*771 _0624_
*772 _0625_
*773 _0626_
*774 _0627_
*775 _0628_
*776 _0629_
*777 _0630_
*778 _0631_
*779 _0632_
*780 _0633_
*781 _0634_
*782 _0635_
*783 _0636_
*784 _0637_
*785 _0638_
*786 _0639_
*787 _0640_
*788 _0641_
*789 _0642_
*790 _0643_
*791 _0644_
*792 _0645_
*793 _0646_
*794 _0647_
*795 _0648_
*796 _0649_
*797 _0650_
*798 _0651_
*799 _0652_
*800 _0653_
*801 _0654_
*802 _0655_
*803 _0656_
*804 _0657_
*805 _0658_
*806 _0659_
*807 _0660_
*808 _0661_
*809 _0662_
*810 _0663_
*811 _0664_
*812 _0665_
*813 _0666_
*814 _0667_
*815 _0668_
*816 _0669_
*817 _0670_
*818 _0671_
*819 _0672_
*820 _0673_
*821 _0674_
*822 _0675_
*823 _0676_
*824 _0677_
*825 _0678_
*826 _0679_
*827 _0680_
*828 _0681_
*829 _0682_
*830 _0683_
*831 _0684_
*832 _0685_
*833 _0686_
*834 _0687_
*835 _0688_
*836 _0689_
*837 _0690_
*838 _0691_
*839 _0692_
*840 _0693_
*841 _0694_
*842 _0695_
*843 _0696_
*844 _0697_
*845 _0698_
*846 _0699_
*847 _0700_
*848 _0701_
*849 _0702_
*850 _0703_
*851 _0704_
*852 _0705_
*853 _0706_
*854 _0707_
*855 _0708_
*856 _0709_
*857 _0710_
*858 _0711_
*859 _0712_
*860 _0713_
*861 _0714_
*862 _0715_
*863 _0716_
*864 _0717_
*865 _0718_
*866 _0719_
*867 _0720_
*868 _0721_
*869 _0722_
*870 _0723_
*871 _0724_
*872 _0725_
*873 _0726_
*874 _0727_
*875 _0728_
*876 _0729_
*877 _0730_
*878 _0731_
*879 _0732_
*880 _0733_
*881 _0734_
*882 _0735_
*883 _0736_
*884 _0737_
*885 _0738_
*886 _0739_
*887 _0740_
*888 _0741_
*889 _0742_
*890 _0743_
*891 _0744_
*892 _0745_
*893 _0746_
*894 _0747_
*895 _0748_
*896 _0749_
*897 _0750_
*898 _0751_
*899 _0752_
*900 _0753_
*901 _0754_
*902 _0755_
*903 _0756_
*904 _0757_
*905 _0758_
*906 _0759_
*907 _0760_
*908 _0761_
*909 _0762_
*910 _0763_
*911 _0764_
*912 _0765_
*913 _0766_
*914 _0767_
*915 _0768_
*916 _0769_
*917 _0770_
*918 _0771_
*919 _0772_
*920 _0773_
*921 _0774_
*922 _0775_
*923 _0776_
*924 _0777_
*925 _0778_
*926 _0779_
*927 _0780_
*928 _0781_
*929 _0782_
*930 _0783_
*931 _0784_
*932 _0785_
*933 _0786_
*934 _0787_
*935 _0788_
*936 _0789_
*937 _0790_
*938 _0791_
*939 _0792_
*940 _0793_
*941 _0794_
*942 _0795_
*943 _0796_
*944 _0797_
*945 _0798_
*946 _0799_
*947 _0800_
*948 _0801_
*949 _0802_
*950 _0803_
*951 _0804_
*952 _0805_
*953 _0806_
*954 _0807_
*955 _0808_
*956 _0809_
*957 _0810_
*958 _0811_
*959 _0812_
*960 _0813_
*961 _0814_
*962 _0815_
*963 _0816_
*964 _0817_
*965 _0818_
*966 _0819_
*967 _0820_
*968 _0821_
*969 _0822_
*970 _0823_
*971 _0824_
*972 _0825_
*973 _0826_
*974 _0827_
*975 _0828_
*976 _0829_
*977 _0830_
*978 _0831_
*979 _0832_
*980 _0833_
*981 _0834_
*982 _0835_
*983 _0836_
*984 _0837_
*985 _0838_
*986 _0839_
*987 _0840_
*988 _0841_
*989 _0842_
*990 _0843_
*991 _0844_
*992 _0845_
*993 _0846_
*994 _0847_
*995 _0848_
*996 _0849_
*997 _0850_
*998 _0851_
*999 _0852_
*1000 _0853_
*1001 _0854_
*1002 _0855_
*1003 _0856_
*1004 _0857_
*1005 _0858_
*1006 _0859_
*1007 _0860_
*1008 _0861_
*1009 _0862_
*1010 _0863_
*1011 _0864_
*1012 _0865_
*1013 _0866_
*1014 _0867_
*1015 _0868_
*1016 _0869_
*1017 _0870_
*1018 _0871_
*1019 _0872_
*1020 _0873_
*1021 _0874_
*1022 _0875_
*1023 _0876_
*1024 _0877_
*1025 _0878_
*1026 _0879_
*1027 _0880_
*1028 _0881_
*1029 _0882_
*1030 _0883_
*1031 _0884_
*1032 _0885_
*1033 _0886_
*1034 _0887_
*1035 _0888_
*1036 _0889_
*1037 _0890_
*1038 _0891_
*1039 _0892_
*1040 _0893_
*1041 _0894_
*1042 _0895_
*1043 _0896_
*1044 _0897_
*1045 _0898_
*1046 _0899_
*1047 _0900_
*1048 _0901_
*1049 _0902_
*1050 _0903_
*1051 _0904_
*1052 _0905_
*1053 _0906_
*1054 _0907_
*1055 _0908_
*1056 _0909_
*1057 _0910_
*1058 _0911_
*1059 _0912_
*1060 _0913_
*1061 _0914_
*1062 _0915_
*1063 _0916_
*1064 _0917_
*1065 _0918_
*1066 _0919_
*1067 _0920_
*1068 _0921_
*1069 _0922_
*1070 _0923_
*1071 _0924_
*1072 _0925_
*1073 _0926_
*1074 _0927_
*1075 _0928_
*1076 _0929_
*1077 _0930_
*1078 _0931_
*1079 _0932_
*1080 _0933_
*1081 _0934_
*1082 _0935_
*1083 _0936_
*1084 _0937_
*1085 _0938_
*1086 _0939_
*1087 _0940_
*1088 _0941_
*1089 _0942_
*1090 _0943_
*1091 _0944_
*1092 _0945_
*1093 _0946_
*1094 _0947_
*1095 _0948_
*1096 _0949_
*1097 _0950_
*1098 _0951_
*1099 _0952_
*1100 _0953_
*1101 _0954_
*1102 _0955_
*1103 _0956_
*1104 _0957_
*1105 _0958_
*1106 _0959_
*1107 _0960_
*1108 _0961_
*1109 _0962_
*1110 _0963_
*1111 _0964_
*1112 _0965_
*1113 _0966_
*1114 _0967_
*1115 _0968_
*1116 _0969_
*1117 _0970_
*1118 _0971_
*1119 _0972_
*1120 _0973_
*1121 _0974_
*1122 _0975_
*1123 _0976_
*1124 _0977_
*1125 _0978_
*1126 _0979_
*1127 _0980_
*1128 _0981_
*1129 _0982_
*1130 _0983_
*1131 _0984_
*1132 _0985_
*1133 _0986_
*1134 _0987_
*1135 _0988_
*1136 _0989_
*1137 _0990_
*1138 _0991_
*1139 _0992_
*1140 _0993_
*1141 _0994_
*1142 _0995_
*1143 _0996_
*1144 _0997_
*1145 _0998_
*1146 _0999_
*1147 _1000_
*1148 _1001_
*1149 _1002_
*1150 _1003_
*1151 _1004_
*1152 _1005_
*1153 _1006_
*1154 _1007_
*1155 _1008_
*1156 _1009_
*1157 _1010_
*1158 _1011_
*1159 _1012_
*1160 _1013_
*1161 _1014_
*1162 _1015_
*1163 _1016_
*1164 _1017_
*1165 _1018_
*1166 _1019_
*1167 _1020_
*1168 _1021_
*1169 _1022_
*1170 _1023_
*1171 _1024_
*1172 _1025_
*1173 _1026_
*1174 _1027_
*1175 _1028_
*1176 _1029_
*1177 _1030_
*1178 _1031_
*1179 _1032_
*1180 _1033_
*1181 _1034_
*1182 _1035_
*1183 _1036_
*1184 _1037_
*1185 _1038_
*1186 _1039_
*1187 _1040_
*1188 _1041_
*1189 _1042_
*1190 _1043_
*1191 _1044_
*1192 _1045_
*1193 _1046_
*1194 _1047_
*1195 _1048_
*1196 _1049_
*1197 _1050_
*1198 _1051_
*1199 _1052_
*1200 _1053_
*1201 _1054_
*1202 _1055_
*1203 _1056_
*1204 _1057_
*1205 _1058_
*1206 _1059_
*1207 _1060_
*1208 _1061_
*1209 _1062_
*1210 _1063_
*1211 _1064_
*1212 _1065_
*1213 _1066_
*1214 _1067_
*1215 _1068_
*1216 _1069_
*1217 _1070_
*1218 _1071_
*1219 _1072_
*1220 _1073_
*1221 _1074_
*1222 _1075_
*1223 _1076_
*1224 _1077_
*1225 _1078_
*1226 _1079_
*1227 _1080_
*1228 _1081_
*1229 _1082_
*1230 _1083_
*1231 _1084_
*1232 _1085_
*1233 _1086_
*1234 _1087_
*1235 _1088_
*1236 _1089_
*1237 _1090_
*1238 _1091_
*1239 _1092_
*1240 _1093_
*1241 _1094_
*1242 _1095_
*1243 _1096_
*1244 _1097_
*1245 _1098_
*1246 _1099_
*1247 _1100_
*1248 _1101_
*1249 _1102_
*1250 _1103_
*1251 _1104_
*1252 _1105_
*1253 _1106_
*1254 _1107_
*1255 _1108_
*1256 _1109_
*1257 _1110_
*1258 _1111_
*1259 _1112_
*1260 _1113_
*1261 _1114_
*1262 _1115_
*1263 _1116_
*1264 _1117_
*1265 _1118_
*1266 _1119_
*1267 _1120_
*1268 _1121_
*1269 _1122_
*1270 _1123_
*1271 _1124_
*1272 _1125_
*1273 _1126_
*1274 _1127_
*1275 _1128_
*1276 _1129_
*1277 _1130_
*1278 _1131_
*1279 _1132_
*1280 _1133_
*1281 _1134_
*1282 _1135_
*1283 _1136_
*1284 _1137_
*1285 _1138_
*1286 _1139_
*1287 _1140_
*1288 _1141_
*1289 _1142_
*1290 _1143_
*1291 _1144_
*1292 _1145_
*1293 _1146_
*1294 _1147_
*1295 _1148_
*1296 _1149_
*1297 _1150_
*1298 _1151_
*1299 _1152_
*1300 _1153_
*1301 _1154_
*1302 _1155_
*1303 _1156_
*1304 _1157_
*1305 _1158_
*1306 _1159_
*1307 _1160_
*1308 _1161_
*1309 _1162_
*1310 _1163_
*1311 _1164_
*1312 _1165_
*1313 _1166_
*1314 _1167_
*1315 _1168_
*1316 _1169_
*1317 _1170_
*1318 _1171_
*1319 _1172_
*1320 _1173_
*1321 _1174_
*1322 _1175_
*1323 _1176_
*1324 _1177_
*1325 _1178_
*1326 _1179_
*1327 _1180_
*1328 _1181_
*1329 _1182_
*1330 _1183_
*1331 _1184_
*1332 _1185_
*1333 _1186_
*1334 _1187_
*1335 _1188_
*1336 _1189_
*1337 _1190_
*1338 _1191_
*1339 _1192_
*1340 _1193_
*1341 _1194_
*1342 _1195_
*1343 _1196_
*1344 _1197_
*1345 _1198_
*1346 _1199_
*1347 _1200_
*1348 _1201_
*1349 _1202_
*1350 _1203_
*1351 _1204_
*1352 _1205_
*1353 _1206_
*1354 _1207_
*1355 _1208_
*1356 _1209_
*1357 _1210_
*1358 _1211_
*1359 _1212_
*1360 _1213_
*1361 _1214_
*1362 _1215_
*1363 _1216_
*1364 _1217_
*1365 _1218_
*1366 _1219_
*1367 _1220_
*1368 _1221_
*1369 _1222_
*1370 _1223_
*1371 _1224_
*1372 _1225_
*1373 _1226_
*1374 _1227_
*1375 _1228_
*1376 _1229_
*1377 _1230_
*1378 _1231_
*1379 _1232_
*1380 _1233_
*1381 _1234_
*1382 _1235_
*1383 _1236_
*1384 _1237_
*1385 _1238_
*1386 _1239_
*1387 _1240_
*1388 _1241_
*1389 _1242_
*1390 _1243_
*1391 _1244_
*1392 _1245_
*1393 _1246_
*1394 _1247_
*1395 _1248_
*1396 _1249_
*1397 _1250_
*1398 _1251_
*1399 _1252_
*1400 _1253_
*1401 _1254_
*1402 _1255_
*1403 _1256_
*1404 _1257_
*1405 _1258_
*1406 _1259_
*1407 _1260_
*1408 _1261_
*1409 _1262_
*1410 _1263_
*1411 _1264_
*1412 _1265_
*1413 _1266_
*1414 _1267_
*1415 _1268_
*1416 _1269_
*1417 _1270_
*1418 _1271_
*1419 _1272_
*1420 _1273_
*1421 _1274_
*1422 _1275_
*1423 _1276_
*1424 _1277_
*1425 _1278_
*1426 _1279_
*1427 _1280_
*1428 _1281_
*1429 _1282_
*1430 _1283_
*1431 _1284_
*1432 _1285_
*1433 _1286_
*1434 _1287_
*1435 _1288_
*1436 _1289_
*1437 _1290_
*1438 _1291_
*1439 _1292_
*1440 _1293_
*1441 _1294_
*1442 _1295_
*1443 _1296_
*1444 _1297_
*1445 _1298_
*1446 _1299_
*1447 _1300_
*1448 _1301_
*1449 _1302_
*1450 _1303_
*1451 _1304_
*1452 _1305_
*1453 _1306_
*1454 _1307_
*1455 _1308_
*1456 _1309_
*1457 _1310_
*1458 _1311_
*1459 _1312_
*1460 _1313_
*1461 _1314_
*1462 _1315_
*1463 _1316_
*1464 _1317_
*1465 _1318_
*1466 _1319_
*1467 _1320_
*1468 _1321_
*1469 _1322_
*1470 _1323_
*1471 _1324_
*1472 _1325_
*1473 _1326_
*1474 _1327_
*1475 _1328_
*1476 _1329_
*1477 _1330_
*1478 _1331_
*1479 _1332_
*1480 _1333_
*1481 _1334_
*1482 _1335_
*1483 _1336_
*1484 _1337_
*1485 _1338_
*1486 _1339_
*1487 _1340_
*1488 _1341_
*1489 _1342_
*1490 _1343_
*1491 _1344_
*1492 _1345_
*1493 _1346_
*1494 _1347_
*1495 _1348_
*1496 _1349_
*1497 _1350_
*1498 _1351_
*1499 _1352_
*1500 _1353_
*1501 _1354_
*1502 _1355_
*1503 _1356_
*1504 _1357_
*1505 _1358_
*1506 _1359_
*1507 _1360_
*1508 _1361_
*1509 _1362_
*1510 _1363_
*1511 _1364_
*1512 _1365_
*1513 _1366_
*1514 _1367_
*1515 _1368_
*1516 _1369_
*1517 _1370_
*1518 _1371_
*1519 _1372_
*1520 _1373_
*1521 _1374_
*1522 _1375_
*1523 _1376_
*1524 _1377_
*1525 _1378_
*1526 _1379_
*1527 _1380_
*1528 _1381_
*1529 _1382_
*1530 _1383_
*1531 _1384_
*1532 _1385_
*1533 _1386_
*1534 _1387_
*1535 _1388_
*1536 _1389_
*1537 _1390_
*1538 _1391_
*1539 _1392_
*1540 _1393_
*1541 _1394_
*1542 _1395_
*1543 _1396_
*1544 _1397_
*1545 _1398_
*1546 _1399_
*1547 _1400_
*1548 _1401_
*1549 _1402_
*1550 _1403_
*1551 _1404_
*1552 _1405_
*1553 _1406_
*1554 _1407_
*1555 _1408_
*1556 _1409_
*1557 _1410_
*1558 _1411_
*1559 _1412_
*1560 _1413_
*1561 _1414_
*1562 _1415_
*1563 _1416_
*1564 _1417_
*1565 _1418_
*1566 _1419_
*1567 _1420_
*1568 _1421_
*1569 _1422_
*1570 _1423_
*1571 _1424_
*1572 _1425_
*1573 _1426_
*1574 _1427_
*1575 _1428_
*1576 _1429_
*1577 _1430_
*1578 _1431_
*1579 _1432_
*1580 _1433_
*1581 _1434_
*1582 _1435_
*1583 _1436_
*1584 _1437_
*1585 _1438_
*1586 _1439_
*1587 _1440_
*1588 _1441_
*1589 _1442_
*1590 _1443_
*1591 _1444_
*1592 _1445_
*1593 _1446_
*1594 _1447_
*1595 _1448_
*1596 _1449_
*1597 _1450_
*1598 _1451_
*1599 _1452_
*1600 _1453_
*1601 _1454_
*1602 _1455_
*1603 _1456_
*1604 _1457_
*1605 _1458_
*1606 _1459_
*1607 _1460_
*1608 _1461_
*1609 _1462_
*1610 _1463_
*1611 _1464_
*1612 _1465_
*1613 _1466_
*1614 _1467_
*1615 _1468_
*1616 _1469_
*1617 _1470_
*1618 _1471_
*1619 _1472_
*1620 _1473_
*1621 _1474_
*1622 _1475_
*1623 _1476_
*1624 _1477_
*1625 _1478_
*1626 _1479_
*1627 _1480_
*1628 _1481_
*1629 _1482_
*1630 _1483_
*1631 _1484_
*1632 _1485_
*1633 _1486_
*1634 _1487_
*1635 _1488_
*1636 _1489_
*1637 _1490_
*1638 _1491_
*1639 _1492_
*1640 _1493_
*1641 _1494_
*1642 _1495_
*1643 _1496_
*1644 _1497_
*1645 _1498_
*1646 _1499_
*1647 _1500_
*1648 _1501_
*1649 _1502_
*1650 _1503_
*1651 _1504_
*1652 _1505_
*1653 _1506_
*1654 _1507_
*1655 _1508_
*1656 _1509_
*1657 _1510_
*1658 _1511_
*1659 _1512_
*1660 _1513_
*1661 _1514_
*1662 _1515_
*1663 _1516_
*1664 _1517_
*1665 _1518_
*1666 _1519_
*1667 _1520_
*1668 _1521_
*1669 _1522_
*1670 _1523_
*1671 _1524_
*1672 _1525_
*1673 _1526_
*1674 _1527_
*1675 _1528_
*1676 _1529_
*1677 _1530_
*1678 _1531_
*1679 _1532_
*1680 _1533_
*1681 _1534_
*1682 _1535_
*1683 _1536_
*1684 _1537_
*1685 _1538_
*1686 _1539_
*1687 _1540_
*1688 _1541_
*1689 _1542_
*1690 _1543_
*1691 _1544_
*1692 _1545_
*1693 _1546_
*1694 _1547_
*1695 _1548_
*1696 _1549_
*1697 _1550_
*1698 _1551_
*1699 _1552_
*1700 _1553_
*1701 _1554_
*1702 _1555_
*1703 _1556_
*1704 _1557_
*1705 _1558_
*1706 _1559_
*1707 _1560_
*1708 _1561_
*1709 _1562_
*1710 _1563_
*1711 _1564_
*1712 _1565_
*1713 _1566_
*1714 _1567_
*1715 _1568_
*1716 _1569_
*1717 _1570_
*1718 _1571_
*1719 _1572_
*1720 _1573_
*1721 _1574_
*1722 _1575_
*1723 _1576_
*1724 _1577_
*1725 _1578_
*1726 _1579_
*1727 _1580_
*1728 _1581_
*1729 _1582_
*1730 _1583_
*1731 _1584_
*1732 _1585_
*1733 _1586_
*1734 _1587_
*1735 _1588_
*1736 _1589_
*1737 _1590_
*1738 _1591_
*1739 _1592_
*1740 _1593_
*1741 clknet_0_clk
*1742 clknet_3_0__leaf_clk
*1743 clknet_3_1__leaf_clk
*1744 clknet_3_2__leaf_clk
*1745 clknet_3_3__leaf_clk
*1746 clknet_3_4__leaf_clk
*1747 clknet_3_5__leaf_clk
*1748 clknet_3_6__leaf_clk
*1749 clknet_3_7__leaf_clk
*1750 net1
*1751 net10
*1752 net19
*1753 net2
*1754 net20
*1755 net21
*1756 net22
*1757 net23
*1758 net24
*1759 net25
*1760 net26
*1761 net27
*1762 net28
*1763 net29
*1764 net3
*1765 net30
*1766 net31
*1767 net32
*1768 net33
*1769 net34
*1770 net35
*1771 net36
*1772 net37
*1773 net38
*1774 net39
*1775 net4
*1776 net40
*1777 net41
*1778 net42
*1779 net43
*1780 net44
*1781 net45
*1782 net46
*1783 net47
*1784 net48
*1785 net49
*1786 net5
*1787 net50
*1788 net51
*1789 net52
*1790 net53
*1791 net6
*1792 net7
*1793 net8
*1794 net9
*1795 ANTENNA_1
*1796 ANTENNA_2
*1797 ANTENNA_3
*1798 ANTENNA_4
*1799 FILLER_0_0_109
*1800 FILLER_0_0_113
*1801 FILLER_0_0_125
*1802 FILLER_0_0_137
*1803 FILLER_0_0_141
*1804 FILLER_0_0_15
*1805 FILLER_0_0_153
*1806 FILLER_0_0_165
*1807 FILLER_0_0_169
*1808 FILLER_0_0_181
*1809 FILLER_0_0_193
*1810 FILLER_0_0_197
*1811 FILLER_0_0_209
*1812 FILLER_0_0_221
*1813 FILLER_0_0_225
*1814 FILLER_0_0_237
*1815 FILLER_0_0_249
*1816 FILLER_0_0_253
*1817 FILLER_0_0_265
*1818 FILLER_0_0_27
*1819 FILLER_0_0_277
*1820 FILLER_0_0_281
*1821 FILLER_0_0_29
*1822 FILLER_0_0_293
*1823 FILLER_0_0_3
*1824 FILLER_0_0_305
*1825 FILLER_0_0_309
*1826 FILLER_0_0_321
*1827 FILLER_0_0_333
*1828 FILLER_0_0_41
*1829 FILLER_0_0_53
*1830 FILLER_0_0_57
*1831 FILLER_0_0_69
*1832 FILLER_0_0_81
*1833 FILLER_0_0_85
*1834 FILLER_0_0_97
*1835 FILLER_0_10_105
*1836 FILLER_0_10_111
*1837 FILLER_0_10_123
*1838 FILLER_0_10_128
*1839 FILLER_0_10_141
*1840 FILLER_0_10_148
*1841 FILLER_0_10_15
*1842 FILLER_0_10_160
*1843 FILLER_0_10_172
*1844 FILLER_0_10_184
*1845 FILLER_0_10_197
*1846 FILLER_0_10_209
*1847 FILLER_0_10_221
*1848 FILLER_0_10_233
*1849 FILLER_0_10_245
*1850 FILLER_0_10_251
*1851 FILLER_0_10_253
*1852 FILLER_0_10_265
*1853 FILLER_0_10_27
*1854 FILLER_0_10_277
*1855 FILLER_0_10_289
*1856 FILLER_0_10_29
*1857 FILLER_0_10_3
*1858 FILLER_0_10_301
*1859 FILLER_0_10_307
*1860 FILLER_0_10_309
*1861 FILLER_0_10_321
*1862 FILLER_0_10_333
*1863 FILLER_0_10_41
*1864 FILLER_0_10_53
*1865 FILLER_0_10_65
*1866 FILLER_0_10_77
*1867 FILLER_0_10_83
*1868 FILLER_0_10_85
*1869 FILLER_0_10_93
*1870 FILLER_0_11_101
*1871 FILLER_0_11_110
*1872 FILLER_0_11_118
*1873 FILLER_0_11_125
*1874 FILLER_0_11_137
*1875 FILLER_0_11_144
*1876 FILLER_0_11_15
*1877 FILLER_0_11_156
*1878 FILLER_0_11_169
*1879 FILLER_0_11_181
*1880 FILLER_0_11_193
*1881 FILLER_0_11_205
*1882 FILLER_0_11_217
*1883 FILLER_0_11_223
*1884 FILLER_0_11_225
*1885 FILLER_0_11_237
*1886 FILLER_0_11_249
*1887 FILLER_0_11_261
*1888 FILLER_0_11_27
*1889 FILLER_0_11_273
*1890 FILLER_0_11_279
*1891 FILLER_0_11_281
*1892 FILLER_0_11_293
*1893 FILLER_0_11_3
*1894 FILLER_0_11_305
*1895 FILLER_0_11_317
*1896 FILLER_0_11_329
*1897 FILLER_0_11_39
*1898 FILLER_0_11_51
*1899 FILLER_0_11_55
*1900 FILLER_0_11_57
*1901 FILLER_0_11_69
*1902 FILLER_0_11_77
*1903 FILLER_0_11_93
*1904 FILLER_0_12_101
*1905 FILLER_0_12_112
*1906 FILLER_0_12_141
*1907 FILLER_0_12_15
*1908 FILLER_0_12_153
*1909 FILLER_0_12_165
*1910 FILLER_0_12_177
*1911 FILLER_0_12_189
*1912 FILLER_0_12_195
*1913 FILLER_0_12_197
*1914 FILLER_0_12_209
*1915 FILLER_0_12_221
*1916 FILLER_0_12_233
*1917 FILLER_0_12_245
*1918 FILLER_0_12_251
*1919 FILLER_0_12_253
*1920 FILLER_0_12_265
*1921 FILLER_0_12_27
*1922 FILLER_0_12_277
*1923 FILLER_0_12_289
*1924 FILLER_0_12_29
*1925 FILLER_0_12_3
*1926 FILLER_0_12_301
*1927 FILLER_0_12_307
*1928 FILLER_0_12_309
*1929 FILLER_0_12_321
*1930 FILLER_0_12_333
*1931 FILLER_0_12_41
*1932 FILLER_0_12_53
*1933 FILLER_0_12_65
*1934 FILLER_0_12_73
*1935 FILLER_0_12_85
*1936 FILLER_0_12_95
*1937 FILLER_0_13_105
*1938 FILLER_0_13_111
*1939 FILLER_0_13_118
*1940 FILLER_0_13_122
*1941 FILLER_0_13_136
*1942 FILLER_0_13_140
*1943 FILLER_0_13_15
*1944 FILLER_0_13_162
*1945 FILLER_0_13_169
*1946 FILLER_0_13_181
*1947 FILLER_0_13_188
*1948 FILLER_0_13_200
*1949 FILLER_0_13_212
*1950 FILLER_0_13_225
*1951 FILLER_0_13_237
*1952 FILLER_0_13_249
*1953 FILLER_0_13_261
*1954 FILLER_0_13_27
*1955 FILLER_0_13_273
*1956 FILLER_0_13_279
*1957 FILLER_0_13_281
*1958 FILLER_0_13_293
*1959 FILLER_0_13_3
*1960 FILLER_0_13_305
*1961 FILLER_0_13_317
*1962 FILLER_0_13_329
*1963 FILLER_0_13_39
*1964 FILLER_0_13_51
*1965 FILLER_0_13_55
*1966 FILLER_0_13_57
*1967 FILLER_0_13_69
*1968 FILLER_0_13_77
*1969 FILLER_0_13_92
*1970 FILLER_0_14_108
*1971 FILLER_0_14_120
*1972 FILLER_0_14_135
*1973 FILLER_0_14_141
*1974 FILLER_0_14_145
*1975 FILLER_0_14_15
*1976 FILLER_0_14_157