*SPEF "ieee 1481-1999"
*DESIGN "tt_um_example"
*DATE "11:11:11 Fri 11 11, 1111"
*VENDOR "OpenRCX"
*PROGRAM "Parallel Extraction"
*VERSION "1.0"
*DESIGN_FLOW "NAME_SCOPE LOCAL" "PIN_CAP NONE"
*DIVIDER /
*DELIMITER :
*BUS_DELIMITER []
*T_UNIT 1 NS
*C_UNIT 1 PF
*R_UNIT 1 OHM
*L_UNIT 1 HENRY

*NAME_MAP
*3 clk
*4 ena
*5 rst_n
*6 ui_in[0]
*7 ui_in[1]
*8 ui_in[2]
*9 ui_in[3]
*10 ui_in[4]
*11 ui_in[5]
*12 ui_in[6]
*13 ui_in[7]
*14 uio_in[0]
*15 uio_in[1]
*16 uio_in[2]
*17 uio_in[3]
*18 uio_in[4]
*19 uio_in[5]
*20 uio_in[6]
*21 uio_in[7]
*22 net17
*23 net18
*24 net19
*25 net20
*26 net21
*27 net22
*28 net23
*29 net24
*30 net25
*31 net26
*32 net27
*33 net28
*34 net29
*35 net30
*36 net31
*37 net32
*38 uo_out[0]
*39 uo_out[1]
*40 uo_out[2]
*41 uo_out[3]
*42 uo_out[4]
*43 uo_out[5]
*44 uo_out[6]
*45 uo_out[7]
*46 _00_
*47 _01_
*48 _02_
*49 _03_
*50 _04_
*51 _05_
*52 _06_
*53 _07_
*54 _08_
*55 _09_
*56 _10_
*57 _11_
*58 _12_
*59 _13_
*60 _14_
*61 _15_
*62 _16_
*63 _17_
*64 _18_
*65 _19_
*66 _20_
*67 _21_
*68 _22_
*69 _23_
*70 _24_
*71 _25_
*72 _26_
*73 _27_
*74 _28_
*75 _29_
*76 net1
*77 net10
*78 net11
*79 net12
*80 net13
*81 net14
*82 net15
*83 net16
*84 net2
*85 net3
*86 net4
*87 net5
*88 net6
*89 net7
*90 net8
*91 net9
*92 FILLER_0_0_109
*93 FILLER_0_0_113
*94 FILLER_0_0_125
*95 FILLER_0_0_137
*96 FILLER_0_0_141
*97 FILLER_0_0_15
*98 FILLER_0_0_153
*99 FILLER_0_0_165
*100 FILLER_0_0_169
*101 FILLER_0_0_181
*102 FILLER_0_0_193
*103 FILLER_0_0_197
*104 FILLER_0_0_209
*105 FILLER_0_0_221
*106 FILLER_0_0_225
*107 FILLER_0_0_237
*108 FILLER_0_0_249
*109 FILLER_0_0_253
*110 FILLER_0_0_265
*111 FILLER_0_0_27
*112 FILLER_0_0_277
*113 FILLER_0_0_281
*114 FILLER_0_0_29
*115 FILLER_0_0_293
*116 FILLER_0_0_3
*117 FILLER_0_0_305
*118 FILLER_0_0_309
*119 FILLER_0_0_321
*120 FILLER_0_0_333
*121 FILLER_0_0_337
*122 FILLER_0_0_349
*123 FILLER_0_0_361
*124 FILLER_0_0_365
*125 FILLER_0_0_377
*126 FILLER_0_0_389
*127 FILLER_0_0_393
*128 FILLER_0_0_405
*129 FILLER_0_0_41
*130 FILLER_0_0_417
*131 FILLER_0_0_421
*132 FILLER_0_0_433
*133 FILLER_0_0_445
*134 FILLER_0_0_449
*135 FILLER_0_0_461
*136 FILLER_0_0_473
*137 FILLER_0_0_477
*138 FILLER_0_0_489
*139 FILLER_0_0_501
*140 FILLER_0_0_505
*141 FILLER_0_0_517
*142 FILLER_0_0_529
*143 FILLER_0_0_53
*144 FILLER_0_0_533
*145 FILLER_0_0_545
*146 FILLER_0_0_557
*147 FILLER_0_0_561
*148 FILLER_0_0_57
*149 FILLER_0_0_573
*150 FILLER_0_0_585
*151 FILLER_0_0_589
*152 FILLER_0_0_601
*153 FILLER_0_0_613
*154 FILLER_0_0_617
*155 FILLER_0_0_629
*156 FILLER_0_0_641
*157 FILLER_0_0_645
*158 FILLER_0_0_657
*159 FILLER_0_0_669
*160 FILLER_0_0_673
*161 FILLER_0_0_685
*162 FILLER_0_0_69
*163 FILLER_0_0_697
*164 FILLER_0_0_701
*165 FILLER_0_0_81
*166 FILLER_0_0_85
*167 FILLER_0_0_97
*168 FILLER_0_10_109
*169 FILLER_0_10_121
*170 FILLER_0_10_133
*171 FILLER_0_10_139
*172 FILLER_0_10_141
*173 FILLER_0_10_15
*174 FILLER_0_10_153
*175 FILLER_0_10_165
*176 FILLER_0_10_177
*177 FILLER_0_10_189
*178 FILLER_0_10_195
*179 FILLER_0_10_197
*180 FILLER_0_10_209
*181 FILLER_0_10_221
*182 FILLER_0_10_233
*183 FILLER_0_10_245
*184 FILLER_0_10_251
*185 FILLER_0_10_253
*186 FILLER_0_10_265
*187 FILLER_0_10_27
*188 FILLER_0_10_277
*189 FILLER_0_10_289
*190 FILLER_0_10_29
*191 FILLER_0_10_3
*192 FILLER_0_10_301
*193 FILLER_0_10_307
*194 FILLER_0_10_309
*195 FILLER_0_10_321
*196 FILLER_0_10_333
*197 FILLER_0_10_345
*198 FILLER_0_10_357
*199 FILLER_0_10_363
*200 FILLER_0_10_365
*201 FILLER_0_10_377
*202 FILLER_0_10_389
*203 FILLER_0_10_401
*204 FILLER_0_10_41
*205 FILLER_0_10_413
*206 FILLER_0_10_419
*207 FILLER_0_10_421
*208 FILLER_0_10_433
*209 FILLER_0_10_445
*210 FILLER_0_10_457
*211 FILLER_0_10_469
*212 FILLER_0_10_475
*213 FILLER_0_10_477
*214 FILLER_0_10_489
*215 FILLER_0_10_501
*216 FILLER_0_10_513
*217 FILLER_0_10_525
*218 FILLER_0_10_53
*219 FILLER_0_10_531
*220 FILLER_0_10_533
*221 FILLER_0_10_545
*222 FILLER_0_10_557
*223 FILLER_0_10_569
*224 FILLER_0_10_581
*225 FILLER_0_10_587
*226 FILLER_0_10_589
*227 FILLER_0_10_601
*228 FILLER_0_10_613
*229 FILLER_0_10_625
*230 FILLER_0_10_637
*231 FILLER_0_10_643
*232 FILLER_0_10_645
*233 FILLER_0_10_65
*234 FILLER_0_10_657
*235 FILLER_0_10_669
*236 FILLER_0_10_681
*237 FILLER_0_10_693
*238 FILLER_0_10_699
*239 FILLER_0_10_701
*240 FILLER_0_10_77
*241 FILLER_0_10_83
*242 FILLER_0_10_85
*243 FILLER_0_10_97
*244 FILLER_0_11_105
*245 FILLER_0_11_111
*246 FILLER_0_11_113
*247 FILLER_0_11_125
*248 FILLER_0_11_137
*249 FILLER_0_11_149
*250 FILLER_0_11_15
*251 FILLER_0_11_161
*252 FILLER_0_11_167
*253 FILLER_0_11_169
*254 FILLER_0_11_181
*255 FILLER_0_11_193
*256 FILLER_0_11_205
*257 FILLER_0_11_217
*258 FILLER_0_11_223
*259 FILLER_0_11_225
*260 FILLER_0_11_237
*261 FILLER_0_11_249
*262 FILLER_0_11_261
*263 FILLER_0_11_27
*264 FILLER_0_11_273
*265 FILLER_0_11_279
*266 FILLER_0_11_281
*267 FILLER_0_11_293
*268 FILLER_0_11_3
*269 FILLER_0_11_305
*270 FILLER_0_11_317
*271 FILLER_0_11_329
*272 FILLER_0_11_335
*273 FILLER_0_11_337
*274 FILLER_0_11_349
*275 FILLER_0_11_361
*276 FILLER_0_11_373
*277 FILLER_0_11_385
*278 FILLER_0_11_39
*279 FILLER_0_11_391
*280 FILLER_0_11_393
*281 FILLER_0_11_405
*282 FILLER_0_11_417
*283 FILLER_0_11_429
*284 FILLER_0_11_441
*285 FILLER_0_11_447
*286 FILLER_0_11_449
*287 FILLER_0_11_461
*288 FILLER_0_11_473
*289 FILLER_0_11_485
*290 FILLER_0_11_497
*291 FILLER_0_11_503
*292 FILLER_0_11_505
*293 FILLER_0_11_51
*294 FILLER_0_11_517
*295 FILLER_0_11_529
*296 FILLER_0_11_541
*297 FILLER_0_11_55
*298 FILLER_0_11_553
*299 FILLER_0_11_559
*300 FILLER_0_11_561
*301 FILLER_0_11_57
*302 FILLER_0_11_573
*303 FILLER_0_11_585
*304 FILLER_0_11_597
*305 FILLER_0_11_609
*306 FILLER_0_11_615
*307 FILLER_0_11_617
*308 FILLER_0_11_629
*309 FILLER_0_11_641
*310 FILLER_0_11_653
*311 FILLER_0_11_665
*312 FILLER_0_11_671
*313 FILLER_0_11_673
*314 FILLER_0_11_685
*315 FILLER_0_11_69
*316 FILLER_0_11_697
*317 FILLER_0_11_709
*318 FILLER_0_11_81
*319 FILLER_0_11_93
*320 FILLER_0_12_109
*321 FILLER_0_12_121
*322 FILLER_0_12_133
*323 FILLER_0_12_139
*324 FILLER_0_12_141
*325 FILLER_0_12_15
*326 FILLER_0_12_153
*327 FILLER_0_12_165
*328 FILLER_0_12_177
*329 FILLER_0_12_189
*330 FILLER_0_12_195
*331 FILLER_0_12_197
*332 FILLER_0_12_209
*333 FILLER_0_12_221
*334 FILLER_0_12_233
*335 FILLER_0_12_245
*336 FILLER_0_12_251
*337 FILLER_0_12_253
*338 FILLER_0_12_265
*339 FILLER_0_12_27
*340 FILLER_0_12_277
*341 FILLER_0_12_289
*342 FILLER_0_12_29
*343 FILLER_0_12_3
*344 FILLER_0_12_301
*345 FILLER_0_12_307
*346 FILLER_0_12_309
*347 FILLER_0_12_321
*348 FILLER_0_12_333
*349 FILLER_0_12_345
*350 FILLER_0_12_357
*351 FILLER_0_12_363
*352 FILLER_0_12_365
*353 FILLER_0_12_377
*354 FILLER_0_12_389
*355 FILLER_0_12_401
*356 FILLER_0_12_41
*357 FILLER_0_12_413
*358 FILLER_0_12_419
*359 FILLER_0_12_421
*360 FILLER_0_12_433
*361 FILLER_0_12_445
*362 FILLER_0_12_457
*363 FILLER_0_12_469
*364 FILLER_0_12_475
*365 FILLER_0_12_477
*366 FILLER_0_12_489
*367 FILLER_0_12_501
*368 FILLER_0_12_513
*369 FILLER_0_12_525
*370 FILLER_0_12_53
*371 FILLER_0_12_531
*372 FILLER_0_12_533
*373 FILLER_0_12_545
*374 FILLER_0_12_557
*375 FILLER_0_12_569
*376 FILLER_0_12_581
*377 FILLER_0_12_587
*378 FILLER_0_12_589
*379 FILLER_0_12_601
*380 FILLER_0_12_613
*381 FILLER_0_12_625
*382 FILLER_0_12_637
*383 FILLER_0_12_643
*384 FILLER_0_12_645
*385 FILLER_0_12_65
*386 FILLER_0_12_657
*387 FILLER_0_12_669
*388 FILLER_0_12_681
*389 FILLER_0_12_693
*390 FILLER_0_12_699
*391 FILLER_0_12_701
*392 FILLER_0_12_77
*393 FILLER_0_12_83
*394 FILLER_0_12_85
*395 FILLER_0_12_97
*396 FILLER_0_13_105
*397 FILLER_0_13_111
*398 FILLER_0_13_113
*399 FILLER_0_13_125
*400 FILLER_0_13_137
*401 FILLER_0_13_149
*402 FILLER_0_13_15
*403 FILLER_0_13_161
*404 FILLER_0_13_167
*405 FILLER_0_13_169
*406 FILLER_0_13_181
*407 FILLER_0_13_193
*408 FILLER_0_13_205
*409 FILLER_0_13_217
*410 FILLER_0_13_223
*411 FILLER_0_13_225
*412 FILLER_0_13_237
*413 FILLER_0_13_249
*414 FILLER_0_13_261
*415 FILLER_0_13_27
*416 FILLER_0_13_273
*417 FILLER_0_13_279
*418 FILLER_0_13_281
*419 FILLER_0_13_293
*420 FILLER_0_13_3
*421 FILLER_0_13_305
*422 FILLER_0_13_317
*423 FILLER_0_13_329
*424 FILLER_0_13_335
*425 FILLER_0_13_337
*426 FILLER_0_13_349
*427 FILLER_0_13_361
*428 FILLER_0_13_373
*429 FILLER_0_13_385
*430 FILLER_0_13_39
*431 FILLER_0_13_391
*432 FILLER_0_13_393
*433 FILLER_0_13_405
*434 FILLER_0_13_417
*435 FILLER_0_13_429
*436 FILLER_0_13_441
*437 FILLER_0_13_447
*438 FILLER_0_13_449
*439 FILLER_0_13_461
*440 FILLER_0_13_473
*441 FILLER_0_13_485
*442 FILLER_0_13_497
*443 FILLER_0_13_503
*444 FILLER_0_13_505
*445 FILLER_0_13_51
*446 FILLER_0_13_517
*447 FILLER_0_13_529
*448 FILLER_0_13_541
*449 FILLER_0_13_55
*450 FILLER_0_13_553
*451 FILLER_0_13_559
*452 FILLER_0_13_561
*453 FILLER_0_13_57
*454 FILLER_0_13_573
*455 FILLER_0_13_585
*456 FILLER_0_13_597
*457 FILLER_0_13_609
*458 FILLER_0_13_615
*459 FILLER_0_13_617
*460 FILLER_0_13_629
*461 FILLER_0_13_641
*462 FILLER_0_13_653
*463 FILLER_0_13_665
*464 FILLER_0_13_671
*465 FILLER_0_13_673
*466 FILLER_0_13_685
*467 FILLER_0_13_69
*468 FILLER_0_13_697
*469 FILLER_0_13_709
*470 FILLER_0_13_81
*471 FILLER_0_13_93
*472 FILLER_0_14_109
*473 FILLER_0_14_121
*474 FILLER_0_14_133
*475 FILLER_0_14_139
*476 FILLER_0_14_141
*477 FILLER_0_14_15
*478 FILLER_0_14_153
*479 FILLER_0_14_165
*480 FILLER_0_14_177
*481 FILLER_0_14_189
*482 FILLER_0_14_195
*483 FILLER_0_14_197
*484 FILLER_0_14_209
*485 FILLER_0_14_221
*486 FILLER_0_14_233
*487 FILLER_0_14_245
*488 FILLER_0_14_251
*489 FILLER_0_14_253
*490 FILLER_0_14_265
*491 FILLER_0_14_27
*492 FILLER_0_14_277
*493 FILLER_0_14_289
*494 FILLER_0_14_29
*495 FILLER_0_14_3
*496 FILLER_0_14_301
*497 FILLER_0_14_307
*498 FILLER_0_14_309
*499 FILLER_0_14_321
*500 FILLER_0_14_333
*501 FILLER_0_14_345
*502 FILLER_0_14_357
*503 FILLER_0_14_363
*504 FILLER_0_14_365
*505 FILLER_0_14_377
*506 FILLER_0_14_389
*507 FILLER_0_14_401
*508 FILLER_0_14_41
*509 FILLER_0_14_413
*510 FILLER_0_14_419
*511 FILLER_0_14_421
*512 FILLER_0_14_433
*513 FILLER_0_14_445
*514 FILLER_0_14_457
*515 FILLER_0_14_469
*516 FILLER_0_14_475
*517 FILLER_0_14_477
*518 FILLER_0_14_489
*519 FILLER_0_14_501
*520 FILLER_0_14_513
*521 FILLER_0_14_525
*522 FILLER_0_14_53
*523 FILLER_0_14_531
*524 FILLER_0_14_533
*525 FILLER_0_14_545
*526 FILLER_0_14_557
*527 FILLER_0_14_569
*528 FILLER_0_14_581
*529 FILLER_0_14_587
*530 FILLER_0_14_589
*531 FILLER_0_14_601
*532 FILLER_0_14_613
*533 FILLER_0_14_625
*534 FILLER_0_14_637
*535 FILLER_0_14_643
*536 FILLER_0_14_645
*537 FILLER_0_14_65
*538 FILLER_0_14_657
*539 FILLER_0_14_669
*540 FILLER_0_14_681
*541 FILLER_0_14_693
*542 FILLER_0_14_699
*543 FILLER_0_14_701
*544 FILLER_0_14_77
*545 FILLER_0_14_83
*546 FILLER_0_14_85
*547 FILLER_0_14_97
*548 FILLER_0_15_105
*549 FILLER_0_15_111
*550 FILLER_0_15_113
*551 FILLER_0_15_125
*552 FILLER_0_15_137
*553 FILLER_0_15_149
*554 FILLER_0_15_15
*555 FILLER_0_15_161
*556 FILLER_0_15_167
*557 FILLER_0_15_169
*558 FILLER_0_15_181
*559 FILLER_0_15_193
*560 FILLER_0_15_205
*561 FILLER_0_15_217
*562 FILLER_0_15_223
*563 FILLER_0_15_225
*564 FILLER_0_15_237
*565 FILLER_0_15_249
*566 FILLER_0_15_261
*567 FILLER_0_15_27
*568 FILLER_0_15_273
*569 FILLER_0_15_279
*570 FILLER_0_15_281
*571 FILLER_0_15_293
*572 FILLER_0_15_3
*573 FILLER_0_15_305
*574 FILLER_0_15_317
*575 FILLER_0_15_329
*576 FILLER_0_15_335
*577 FILLER_0_15_337
*578 FILLER_0_15_349
*579 FILLER_0_15_361
*580 FILLER_0_15_373
*581 FILLER_0_15_385
*582 FILLER_0_15_39
*583 FILLER_0_15_391
*584 FILLER_0_15_393
*585 FILLER_0_15_405
*586 FILLER_0_15_417
*587 FILLER_0_15_429
*588 FILLER_0_15_441
*589 FILLER_0_15_447
*590 FILLER_0_15_449
*591 FILLER_0_15_461
*592 FILLER_0_15_473
*593 FILLER_0_15_485
*594 FILLER_0_15_497
*595 FILLER_0_15_503
*596 FILLER_0_15_505
*597 FILLER_0_15_51
*598 FILLER_0_15_517
*599 FILLER_0_15_529
*600 FILLER_0_15_541
*601 FILLER_0_15_55
*602 FILLER_0_15_553
*603 FILLER_0_15_559
*604 FILLER_0_15_561
*605 FILLER_0_15_57
*606 FILLER_0_15_573
*607 FILLER_0_15_585
*608 FILLER_0_15_597
*609 FILLER_0_15_609
*610 FILLER_0_15_615
*611 FILLER_0_15_617
*612 FILLER_0_15_629
*613 FILLER_0_15_641
*614 FILLER_0_15_653
*615 FILLER_0_15_665
*616 FILLER_0_15_671
*617 FILLER_0_15_673
*618 FILLER_0_15_685
*619 FILLER_0_15_69
*620 FILLER_0_15_697
*621 FILLER_0_15_709
*622 FILLER_0_15_81
*623 FILLER_0_15_93
*624 FILLER_0_16_109
*625 FILLER_0_16_121
*626 FILLER_0_16_133
*627 FILLER_0_16_139
*628 FILLER_0_16_141
*629 FILLER_0_16_15
*630 FILLER_0_16_153
*631 FILLER_0_16_165
*632 FILLER_0_16_177
*633 FILLER_0_16_189
*634 FILLER_0_16_195
*635 FILLER_0_16_197
*636 FILLER_0_16_209
*637 FILLER_0_16_221
*638 FILLER_0_16_233
*639 FILLER_0_16_245
*640 FILLER_0_16_251
*641 FILLER_0_16_253
*642 FILLER_0_16_265
*643 FILLER_0_16_27
*644 FILLER_0_16_277
*645 FILLER_0_16_289
*646 FILLER_0_16_29
*647 FILLER_0_16_3
*648 FILLER_0_16_301
*649 FILLER_0_16_307
*650 FILLER_0_16_309
*651 FILLER_0_16_321
*652 FILLER_0_16_333
*653 FILLER_0_16_345
*654 FILLER_0_16_357
*655 FILLER_0_16_363
*656 FILLER_0_16_365
*657 FILLER_0_16_377
*658 FILLER_0_16_389
*659 FILLER_0_16_401
*660 FILLER_0_16_41
*661 FILLER_0_16_413
*662 FILLER_0_16_419
*663 FILLER_0_16_421
*664 FILLER_0_16_433
*665 FILLER_0_16_445
*666 FILLER_0_16_457
*667 FILLER_0_16_469
*668 FILLER_0_16_475
*669 FILLER_0_16_477
*670 FILLER_0_16_489
*671 FILLER_0_16_501
*672 FILLER_0_16_513
*673 FILLER_0_16_525
*674 FILLER_0_16_53
*675 FILLER_0_16_531
*676 FILLER_0_16_533
*677 FILLER_0_16_545
*678 FILLER_0_16_557
*679 FILLER_0_16_569
*680 FILLER_0_16_581
*681 FILLER_0_16_587
*682 FILLER_0_16_589
*683 FILLER_0_16_601
*684 FILLER_0_16_613
*685 FILLER_0_16_625
*686 FILLER_0_16_637
*687 FILLER_0_16_643
*688 FILLER_0_16_645
*689 FILLER_0_16_65
*690 FILLER_0_16_657
*691 FILLER_0_16_669
*692 FILLER_0_16_681
*693 FILLER_0_16_693
*694 FILLER_0_16_699
*695 FILLER_0_16_701
*696 FILLER_0_16_77
*697 FILLER_0_16_83
*698 FILLER_0_16_85
*699 FILLER_0_16_97
*700 FILLER_0_17_105
*701 FILLER_0_17_111
*702 FILLER_0_17_113
*703 FILLER_0_17_125
*704 FILLER_0_17_137
*705 FILLER_0_17_149
*706 FILLER_0_17_15
*707 FILLER_0_17_161
*708 FILLER_0_17_167
*709 FILLER_0_17_169
*710 FILLER_0_17_181
*711 FILLER_0_17_193
*712 FILLER_0_17_205
*713 FILLER_0_17_217
*714 FILLER_0_17_223
*715 FILLER_0_17_225
*716 FILLER_0_17_237
*717 FILLER_0_17_249
*718 FILLER_0_17_261
*719 FILLER_0_17_27
*720 FILLER_0_17_273
*721 FILLER_0_17_279
*722 FILLER_0_17_281
*723 FILLER_0_17_293
*724 FILLER_0_17_3
*725 FILLER_0_17_305
*726 FILLER_0_17_317
*727 FILLER_0_17_329
*728 FILLER_0_17_335
*729 FILLER_0_17_337
*730 FILLER_0_17_349
*731 FILLER_0_17_361
*732 FILLER_0_17_373
*733 FILLER_0_17_385
*734 FILLER_0_17_39
*735 FILLER_0_17_391
*736 FILLER_0_17_393
*737 FILLER_0_17_405
*738 FILLER_0_17_417
*739 FILLER_0_17_429
*740 FILLER_0_17_441
*741 FILLER_0_17_447
*742 FILLER_0_17_449
*743 FILLER_0_17_461
*744 FILLER_0_17_473
*745 FILLER_0_17_485
*746 FILLER_0_17_497
*747 FILLER_0_17_503
*748 FILLER_0_17_505
*749 FILLER_0_17_51
*750 FILLER_0_17_517
*751 FILLER_0_17_529
*752 FILLER_0_17_541
*753 FILLER_0_17_55
*754 FILLER_0_17_553
*755 FILLER_0_17_559
*756 FILLER_0_17_561
*757 FILLER_0_17_57
*758 FILLER_0_17_573
*759 FILLER_0_17_585
*760 FILLER_0_17_597
*761 FILLER_0_17_609
*762 FILLER_0_17_615
*763 FILLER_0_17_617
*764 FILLER_0_17_629
*765 FILLER_0_17_641
*766 FILLER_0_17_653
*767 FILLER_0_17_665
*768 FILLER_0_17_671
*769 FILLER_0_17_673
*770 FILLER_0_17_685
*771 FILLER_0_17_69
*772 FILLER_0_17_697
*773 FILLER_0_17_709
*774 FILLER_0_17_81
*775 FILLER_0_17_93
*776 FILLER_0_18_109
*777 FILLER_0_18_121
*778 FILLER_0_18_133
*779 FILLER_0_18_139
*780 FILLER_0_18_141
*781 FILLER_0_18_15
*782 FILLER_0_18_153
*783 FILLER_0_18_165
*784 FILLER_0_18_177
*785 FILLER_0_18_189
*786 FILLER_0_18_195
*787 FILLER_0_18_197
*788 FILLER_0_18_209
*789 FILLER_0_18_221
*790 FILLER_0_18_233
*791 FILLER_0_18_245
*792 FILLER_0_18_251
*793 FILLER_0_18_253
*794 FILLER_0_18_265
*795 FILLER_0_18_27
*796 FILLER_0_18_277
*797 FILLER_0_18_289
*798 FILLER_0_18_29
*799 FILLER_0_18_3
*800 FILLER_0_18_301
*801 FILLER_0_18_307
*802 FILLER_0_18_309
*803 FILLER_0_18_321
*804 FILLER_0_18_333
*805 FILLER_0_18_345
*806 FILLER_0_18_357
*807 FILLER_0_18_363
*808 FILLER_0_18_365
*809 FILLER_0_18_377
*810 FILLER_0_18_389
*811 FILLER_0_18_401
*812 FILLER_0_18_41
*813 FILLER_0_18_413
*814 FILLER_0_18_419
*815 FILLER_0_18_421
*816 FILLER_0_18_433
*817 FILLER_0_18_445
*818 FILLER_0_18_457
*819 FILLER_0_18_469
*820 FILLER_0_18_475
*821 FILLER_0_18_477
*822 FILLER_0_18_489
*823 FILLER_0_18_501
*824 FILLER_0_18_513
*825 FILLER_0_18_525
*826 FILLER_0_18_53
*827 FILLER_0_18_531
*828 FILLER_0_18_533
*829 FILLER_0_18_545
*830 FILLER_0_18_557
*831 FILLER_0_18_569
*832 FILLER_0_18_581
*833 FILLER_0_18_587
*834 FILLER_0_18_589
*835 FILLER_0_18_601
*836 FILLER_0_18_613
*837 FILLER_0_18_625
*838 FILLER_0_18_637
*839 FILLER_0_18_643
*840 FILLER_0_18_645
*841 FILLER_0_18_65
*842 FILLER_0_18_657
*843 FILLER_0_18_669
*844 FILLER_0_18_681
*845 FILLER_0_18_693
*846 FILLER_0_18_699
*847 FILLER_0_18_701
*848 FILLER_0_18_77
*849 FILLER_0_18_83
*850 FILLER_0_18_85
*851 FILLER_0_18_97
*852 FILLER_0_19_105
*853 FILLER_0_19_111
*854 FILLER_0_19_113
*855 FILLER_0_19_125
*856 FILLER_0_19_137
*857 FILLER_0_19_149
*858 FILLER_0_19_15
*859 FILLER_0_19_161
*860 FILLER_0_19_167
*861 FILLER_0_19_169
*862 FILLER_0_19_181
*863 FILLER_0_19_193
*864 FILLER_0_19_205
*865 FILLER_0_19_217
*866 FILLER_0_19_223
*867 FILLER_0_19_225
*868 FILLER_0_19_237
*869 FILLER_0_19_249
*870 FILLER_0_19_261
*871 FILLER_0_19_27
*872 FILLER_0_19_273
*873 FILLER_0_19_279
*874 FILLER_0_19_281
*875 FILLER_0_19_293
*876 FILLER_0_19_3
*877 FILLER_0_19_305
*878 FILLER_0_19_317
*879 FILLER_0_19_329
*880 FILLER_0_19_335
*881 FILLER_0_19_337
*882 FILLER_0_19_349
*883 FILLER_0_19_361
*884 FILLER_0_19_373
*885 FILLER_0_19_385
*886 FILLER_0_19_39
*887 FILLER_0_19_391
*888 FILLER_0_19_393
*889 FILLER_0_19_405
*890 FILLER_0_19_417
*891 FILLER_0_19_429
*892 FILLER_0_19_441
*893 FILLER_0_19_447
*894 FILLER_0_19_449
*895 FILLER_0_19_461
*896 FILLER_0_19_473
*897 FILLER_0_19_485
*898 FILLER_0_19_497
*899 FILLER_0_19_503
*900 FILLER_0_19_505
*901 FILLER_0_19_51
*902 FILLER_0_19_517
*903 FILLER_0_19_529
*904 FILLER_0_19_541
*905 FILLER_0_19_55
*906 FILLER_0_19_553
*907 FILLER_0_19_559
*908 FILLER_0_19_561
*909 FILLER_0_19_57
*910 FILLER_0_19_573
*911 FILLER_0_19_585
*912 FILLER_0_19_597
*913 FILLER_0_19_609
*914 FILLER_0_19_615
*915 FILLER_0_19_617
*916 FILLER_0_19_629
*917 FILLER_0_19_641
*918 FILLER_0_19_653
*919 FILLER_0_19_665
*920 FILLER_0_19_671
*921 FILLER_0_19_673
*922 FILLER_0_19_685
*923 FILLER_0_19_69
*924 FILLER_0_19_697
*925 FILLER_0_19_709
*926 FILLER_0_19_81
*927 FILLER_0_19_93
*928 FILLER_0_1_105
*929 FILLER_0_1_111
*930 FILLER_0_1_113
*931 FILLER_0_1_125
*932 FILLER_0_1_137
*933 FILLER_0_1_149
*934 FILLER_0_1_15
*935 FILLER_0_1_161
*936 FILLER_0_1_167
*937 FILLER_0_1_169
*938 FILLER_0_1_181
*939 FILLER_0_1_193
*940 FILLER_0_1_205
*941 FILLER_0_1_217
*942 FILLER_0_1_223
*943 FILLER_0_1_225
*944 FILLER_0_1_237
*945 FILLER_0_1_249
*946 FILLER_0_1_261
*947 FILLER_0_1_27
*948 FILLER_0_1_273
*949 FILLER_0_1_279
*950 FILLER_0_1_281
*951 FILLER_0_1_293
*952 FILLER_0_1_3
*953 FILLER_0_1_305
*954 FILLER_0_1_317
*955 FILLER_0_1_329
*956 FILLER_0_1_335
*957 FILLER_0_1_337
*958 FILLER_0_1_349
*959 FILLER_0_1_361
*960 FILLER_0_1_373
*961 FILLER_0_1_385
*962 FILLER_0_1_39
*963 FILLER_0_1_391
*964 FILLER_0_1_393
*965 FILLER_0_1_405
*966 FILLER_0_1_417
*967 FILLER_0_1_429
*968 FILLER_0_1_441
*969 FILLER_0_1_447
*970 FILLER_0_1_449
*971 FILLER_0_1_461
*972 FILLER_0_1_473
*973 FILLER_0_1_485
*974 FILLER_0_1_497
*975 FILLER_0_1_503
*976 FILLER_0_1_505
*977 FILLER_0_1_51
*978 FILLER_0_1_517
*979 FILLER_0_1_529
*980 FILLER_0_1_541
*981 FILLER_0_1_55
*982 FILLER_0_1_553
*983 FILLER_0_1_559
*984 FILLER_0_1_561
*985 FILLER_0_1_57
*986 FILLER_0_1_573
*987 FILLER_0_1_585
*988 FILLER_0_1_597
*989 FILLER_0_1_609
*990 FILLER_0_1_615
*991 FILLER_0_1_617
*992 FILLER_0_1_629
*993 FILLER_0_1_641
*994 FILLER_0_1_653
*995 FILLER_0_1_665
*996 FILLER_0_1_671
*997 FILLER_0_1_673
*998 FILLER_0_1_685
*999 FILLER_0_1_69
*1000 FILLER_0_1_697
*1001 FILLER_0_1_709
*1002 FILLER_0_1_81
*1003 FILLER_0_1_93
*1004 FILLER_0_20_109
*1005 FILLER_0_20_121
*1006 FILLER_0_20_133
*1007 FILLER_0_20_139
*1008 FILLER_0_20_141
*1009 FILLER_0_20_15
*1010 FILLER_0_20_153
*1011 FILLER_0_20_165
*1012 FILLER_0_20_177
*1013 FILLER_0_20_189
*1014 FILLER_0_20_195
*1015 FILLER_0_20_197
*1016 FILLER_0_20_209
*1017 FILLER_0_20_221
*1018 FILLER_0_20_233
*1019 FILLER_0_20_245
*1020 FILLER_0_20_251
*1021 FILLER_0_20_253
*1022 FILLER_0_20_265
*1023 FILLER_0_20_27
*1024 FILLER_0_20_277
*1025 FILLER_0_20_289
*1026 FILLER_0_20_29
*1027 FILLER_0_20_3
*1028 FILLER_0_20_301
*1029 FILLER_0_20_307
*1030 FILLER_0_20_309
*1031 FILLER_0_20_321
*1032 FILLER_0_20_333
*1033 FILLER_0_20_345
*1034 FILLER_0_20_357
*1035 FILLER_0_20_363
*1036 FILLER_0_20_365
*1037 FILLER_0_20_377
*1038 FILLER_0_20_389
*1039 FILLER_0_20_401
*1040 FILLER_0_20_41
*1041 FILLER_0_20_413
*1042 FILLER_0_20_419
*1043 FILLER_0_20_421
*1044 FILLER_0_20_433
*1045 FILLER_0_20_445
*1046 FILLER_0_20_457
*1047 FILLER_0_20_469
*1048 FILLER_0_20_475
*1049 FILLER_0_20_477
*1050 FILLER_0_20_489
*1051 FILLER_0_20_501
*1052 FILLER_0_20_513
*1053 FILLER_0_20_525
*1054 FILLER_0_20_53
*1055 FILLER_0_20_531
*1056 FILLER_0_20_533
*1057 FILLER_0_20_545
*1058 FILLER_0_20_557
*1059 FILLER_0_20_569
*1060 FILLER_0_20_581
*1061 FILLER_0_20_587
*1062 FILLER_0_20_589
*1063 FILLER_0_20_601
*1064 FILLER_0_20_613
*1065 FILLER_0_20_625
*1066 FILLER_0_20_637
*1067 FILLER_0_20_643
*1068 FILLER_0_20_645
*1069 FILLER_0_20_65
*1070 FILLER_0_20_657
*1071 FILLER_0_20_669
*1072 FILLER_0_20_681
*1073 FILLER_0_20_693
*1074 FILLER_0_20_699
*1075 FILLER_0_20_701
*1076 FILLER_0_20_77
*1077 FILLER_0_20_83
*1078 FILLER_0_20_85
*1079 FILLER_0_20_97
*1080 FILLER_0_21_105
*1081 FILLER_0_21_111
*1082 FILLER_0_21_113
*1083 FILLER_0_21_125
*1084 FILLER_0_21_137
*1085 FILLER_0_21_149
*1086 FILLER_0_21_15
*1087 FILLER_0_21_161
*1088 FILLER_0_21_167
*1089 FILLER_0_21_169
*1090 FILLER_0_21_181
*1091 FILLER_0_21_193
*1092 FILLER_0_21_205
*1093 FILLER_0_21_217
*1094 FILLER_0_21_223
*1095 FILLER_0_21_225
*1096 FILLER_0_21_237
*1097 FILLER_0_21_249
*1098 FILLER_0_21_261
*1099 FILLER_0_21_27
*1100 FILLER_0_21_273
*1101 FILLER_0_21_279
*1102 FILLER_0_21_281
*1103 FILLER_0_21_293
*1104 FILLER_0_21_3
*1105 FILLER_0_21_305
*1106 FILLER_0_21_317
*1107 FILLER_0_21_329
*1108 FILLER_0_21_335
*1109 FILLER_0_21_337
*1110 FILLER_0_21_349
*1111 FILLER_0_21_361
*1112 FILLER_0_21_373
*1113 FILLER_0_21_385
*1114 FILLER_0_21_39
*1115 FILLER_0_21_391
*1116 FILLER_0_21_393
*1117 FILLER_0_21_405
*1118 FILLER_0_21_417
*1119 FILLER_0_21_429
*1120 FILLER_0_21_441
*1121 FILLER_0_21_447
*1122 FILLER_0_21_449
*1123 FILLER_0_21_461
*1124 FILLER_0_21_473
*1125 FILLER_0_21_485
*1126 FILLER_0_21_497
*1127 FILLER_0_21_503
*1128 FILLER_0_21_505
*1129 FILLER_0_21_51
*1130 FILLER_0_21_517
*1131 FILLER_0_21_529
*1132 FILLER_0_21_541
*1133 FILLER_0_21_55
*1134 FILLER_0_21_553
*1135 FILLER_0_21_559
*1136 FILLER_0_21_561
*1137 FILLER_0_21_57
*1138 FILLER_0_21_573
*1139 FILLER_0_21_585
*1140 FILLER_0_21_597
*1141 FILLER_0_21_609
*1142 FILLER_0_21_615
*1143 FILLER_0_21_617
*1144 FILLER_0_21_629
*1145 FILLER_0_21_641
*1146 FILLER_0_21_653
*1147 FILLER_0_21_665
*1148 FILLER_0_21_671
*1149 FILLER_0_21_673
*1150 FILLER_0_21_685
*1151 FILLER_0_21_69
*1152 FILLER_0_21_697
*1153 FILLER_0_21_709
*1154 FILLER_0_21_81
*1155 FILLER_0_21_93
*1156 FILLER_0_22_109
*1157 FILLER_0_22_121
*1158 FILLER_0_22_133
*1159 FILLER_0_22_139
*1160 FILLER_0_22_141
*1161 FILLER_0_22_15
*1162 FILLER_0_22_153
*1163 FILLER_0_22_165
*1164 FILLER_0_22_177
*1165 FILLER_0_22_189
*1166 FILLER_0_22_195
*1167 FILLER_0_22_197
*1168 FILLER_0_22_209
*1169 FILLER_0_22_221
*1170 FILLER_0_22_233
*1171 FILLER_0_22_245
*1172 FILLER_0_22_251
*1173 FILLER_0_22_253
*1174 FILLER_0_22_265
*1175 FILLER_0_22_27
*1176 FILLER_0_22_277
*1177 FILLER_0_22_289
*1178 FILLER_0_22_29
*1179 FILLER_0_22_3
*1180 FILLER_0_22_301
*1181 FILLER_0_22_307
*1182 FILLER_0_22_309
*1183 FILLER_0_22_321
*1184 FILLER_0_22_333
*1185 FILLER_0_22_345
*1186 FILLER_0_22_357
*1187 FILLER_0_22_363
*1188 FILLER_0_22_365
*1189 FILLER_0_22_377
*1190 FILLER_0_22_389
*1191 FILLER_0_22_401
*1192 FILLER_0_22_41
*1193 FILLER_0_22_413
*1194 FILLER_0_22_419
*1195 FILLER_0_22_421
*1196 FILLER_0_22_433
*1197 FILLER_0_22_445
*1198 FILLER_0_22_457
*1199 FILLER_0_22_469
*1200 FILLER_0_22_475
*1201 FILLER_0_22_477
*1202 FILLER_0_22_489
*1203 FILLER_0_22_501
*1204 FILLER_0_22_513
*1205 FILLER_0_22_525
*1206 FILLER_0_22_53
*1207 FILLER_0_22_531
*1208 FILLER_0_22_533
*1209 FILLER_0_22_545
*1210 FILLER_0_22_557
*1211 FILLER_0_22_569
*1212 FILLER_0_22_581
*1213 FILLER_0_22_587
*1214 FILLER_0_22_589
*1215 FILLER_0_22_601
*1216 FILLER_0_22_613
*1217 FILLER_0_22_625
*1218 FILLER_0_22_637
*1219 FILLER_0_22_643
*1220 FILLER_0_22_645
*1221 FILLER_0_22_65
*1222 FILLER_0_22_657
*1223 FILLER_0_22_669
*1224 FILLER_0_22_681
*1225 FILLER_0_22_693
*1226 FILLER_0_22_699
*1227 FILLER_0_22_701
*1228 FILLER_0_22_77
*1229 FILLER_0_22_83
*1230 FILLER_0_22_85
*1231 FILLER_0_22_97
*1232 FILLER_0_23_105
*1233 FILLER_0_23_111
*1234 FILLER_0_23_113
*1235 FILLER_0_23_125
*1236 FILLER_0_23_137
*1237 FILLER_0_23_149
*1238 FILLER_0_23_15
*1239 FILLER_0_23_161
*1240 FILLER_0_23_167
*1241 FILLER_0_23_169
*1242 FILLER_0_23_181
*1243 FILLER_0_23_193
*1244 FILLER_0_23_205
*1245 FILLER_0_23_217
*1246 FILLER_0_23_223
*1247 FILLER_0_23_225
*1248 FILLER_0_23_237
*1249 FILLER_0_23_249
*1250 FILLER_0_23_261
*1251 FILLER_0_23_27
*1252 FILLER_0_23_273
*1253 FILLER_0_23_279
*1254 FILLER_0_23_281
*1255 FILLER_0_23_293
*1256 FILLER_0_23_3
*1257 FILLER_0_23_305
*1258 FILLER_0_23_317
*1259 FILLER_0_23_329
*1260 FILLER_0_23_335
*1261 FILLER_0_23_337
*1262 FILLER_0_23_349
*1263 FILLER_0_23_361
*1264 FILLER_0_23_373
*1265 FILLER_0_23_385
*1266 FILLER_0_23_39
*1267 FILLER_0_23_391
*1268 FILLER_0_23_393
*1269 FILLER_0_23_405
*1270 FILLER_0_23_417
*1271 FILLER_0_23_429
*1272 FILLER_0_23_441
*1273 FILLER_0_23_447
*1274 FILLER_0_23_449
*1275 FILLER_0_23_461
*1276 FILLER_0_23_473
*1277 FILLER_0_23_485
*1278 FILLER_0_23_497
*1279 FILLER_0_23_503
*1280 FILLER_0_23_505
*1281 FILLER_0_23_51
*1282 FILLER_0_23_517
*1283 FILLER_0_23_529
*1284 FILLER_0_23_541
*1285 FILLER_0_23_55
*1286 FILLER_0_23_553
*1287 FILLER_0_23_559
*1288 FILLER_0_23_561
*1289 FILLER_0_23_57
*1290 FILLER_0_23_573
*1291 FILLER_0_23_585
*1292 FILLER_0_23_597
*1293 FILLER_0_23_609
*1294 FILLER_0_23_615
*1295 FILLER_0_23_617
*1296 FILLER_0_23_629
*1297 FILLER_0_23_641
*1298 FILLER_0_23_653
*1299 FILLER_0_23_665
*1300 FILLER_0_23_671
*1301 FILLER_0_23_673
*1302 FILLER_0_23_685
*1303 FILLER_0_23_69
*1304 FILLER_0_23_697
*1305 FILLER_0_23_709
*1306 FILLER_0_23_81
*1307 FILLER_0_23_93
*1308 FILLER_0_24_109
*1309 FILLER_0_24_121
*1310 FILLER_0_24_133
*1311 FILLER_0_24_139
*1312 FILLER_0_24_141
*1313 FILLER_0_24_15
*1314 FILLER_0_24_153
*1315 FILLER_0_24_165
*1316 FILLER_0_24_177
*1317 FILLER_0_24_189
*1318 FILLER_0_24_195
*1319 FILLER_0_24_197
*1320 FILLER_0_24_209
*1321 FILLER_0_24_221
*1322 FILLER_0_24_233
*1323 FILLER_0_24_245
*1324 FILLER_0_24_251
*1325 FILLER_0_24_253
*1326 FILLER_0_24_265
*1327 FILLER_0_24_27
*1328 FILLER_0_24_277
*1329 FILLER_0_24_289
*1330 FILLER_0_24_29
*1331 FILLER_0_24_3
*1332 FILLER_0_24_301
*1333 FILLER_0_24_307
*1334 FILLER_0_24_309
*1335 FILLER_0_24_321
*1336 FILLER_0_24_333
*1337 FILLER_0_24_345
*1338 FILLER_0_24_357
*1339 FILLER_0_24_363
*1340 FILLER_0_24_365
*1341 FILLER_0_24_377
*1342 FILLER_0_24_389
*1343 FILLER_0_24_401
*1344 FILLER_0_24_41
*1345 FILLER_0_24_413
*1346 FILLER_0_24_419
*1347 FILLER_0_24_421
*1348 FILLER_0_24_433
*1349 FILLER_0_24_445
*1350 FILLER_0_24_457
*1351 FILLER_0_24_469
*1352 FILLER_0_24_475
*1353 FILLER_0_24_477
*1354 FILLER_0_24_489
*1355 FILLER_0_24_501
*1356 FILLER_0_24_513
*1357 FILLER_0_24_525
*1358 FILLER_0_24_53
*1359 FILLER_0_24_531
*1360 FILLER_0_24_533
*1361 FILLER_0_24_545
*1362 FILLER_0_24_557
*1363 FILLER_0_24_569
*1364 FILLER_0_24_581
*1365 FILLER_0_24_587
*1366 FILLER_0_24_589
*1367 FILLER_0_24_601
*1368 FILLER_0_24_613
*1369 FILLER_0_24_625
*1370 FILLER_0_24_637
*1371 FILLER_0_24_643
*1372 FILLER_0_24_645
*1373 FILLER_0_24_65
*1374 FILLER_0_24_657
*1375 FILLER_0_24_669
*1376 FILLER_0_24_681
*1377 FILLER_0_24_693
*1378 FILLER_0_24_699
*1379 FILLER_0_24_701
*1380 FILLER_0_24_77
*1381 FILLER_0_24_83
*1382 FILLER_0_24_85
*1383 FILLER_0_24_97
*1384 FILLER_0_25_105
*1385 FILLER_0_25_111
*1386 FILLER_0_25_113
*1387 FILLER_0_25_125
*1388 FILLER_0_25_137
*1389 FILLER_0_25_149
*1390 FILLER_0_25_15
*1391 FILLER_0_25_161
*1392 FILLER_0_25_167
*1393 FILLER_0_25_169
*1394 FILLER_0_25_181
*1395 FILLER_0_25_193
*1396 FILLER_0_25_205
*1397 FILLER_0_25_217
*1398 FILLER_0_25_223
*1399 FILLER_0_25_225
*1400 FILLER_0_25_237
*1401 FILLER_0_25_249
*1402 FILLER_0_25_261
*1403 FILLER_0_25_27
*1404 FILLER_0_25_273
*1405 FILLER_0_25_279
*1406 FILLER_0_25_281
*1407 FILLER_0_25_293
*1408 FILLER_0_25_3
*1409 FILLER_0_25_305
*1410 FILLER_0_25_317
*1411 FILLER_0_25_329
*1412 FILLER_0_25_335
*1413 FILLER_0_25_337
*1414 FILLER_0_25_349
*1415 FILLER_0_25_361
*1416 FILLER_0_25_373
*1417 FILLER_0_25_385
*1418 FILLER_0_25_39
*1419 FILLER_0_25_391
*1420 FILLER_0_25_393
*1421 FILLER_0_25_405
*1422 FILLER_0_25_417
*1423 FILLER_0_25_429
*1424 FILLER_0_25_441
*1425 FILLER_0_25_447
*1426 FILLER_0_25_449
*1427 FILLER_0_25_461
*1428 FILLER_0_25_473
*1429 FILLER_0_25_485
*1430 FILLER_0_25_497
*1431 FILLER_0_25_503
*1432 FILLER_0_25_505
*1433 FILLER_0_25_51
*1434 FILLER_0_25_517
*1435 FILLER_0_25_529
*1436 FILLER_0_25_541
*1437 FILLER_0_25_55
*1438 FILLER_0_25_553
*1439 FILLER_0_25_559
*1440 FILLER_0_25_561
*1441 FILLER_0_25_57
*1442 FILLER_0_25_573
*1443 FILLER_0_25_585
*1444 FILLER_0_25_597
*1445 FILLER_0_25_609
*1446 FILLER_0_25_615
*1447 FILLER_0_25_617
*1448 FILLER_0_25_629
*1449 FILLER_0_25_641
*1450 FILLER_0_25_653
*1451 FILLER_0_25_665
*1452 FILLER_0_25_671
*1453 FILLER_0_25_673
*1454 FILLER_0_25_685
*1455 FILLER_0_25_69
*1456 FILLER_0_25_697