*SPEF "ieee 1481-1999"
*DESIGN "tt_um_drburke3_top"
*DATE "20:15:12 Wednesday April 17, 2024"
*VENDOR "The OpenROAD Project"
*PROGRAM "OpenROAD"
*VERSION "0889970d1790a2617e69f253221b8bd7626e51dc"
*DESIGN_FLOW "NAME_SCOPE LOCAL" "PIN_CAP NONE"
*DIVIDER /
*DELIMITER :
*BUS_DELIMITER []
*T_UNIT 1 NS
*C_UNIT 1 PF
*R_UNIT 1 OHM
*L_UNIT 1 HENRY

*NAME_MAP
*3 clk
*4 ena
*5 rst_n
*6 ui_in[0]
*7 ui_in[1]
*8 ui_in[2]
*9 ui_in[3]
*10 ui_in[4]
*11 ui_in[5]
*12 ui_in[6]
*13 ui_in[7]
*14 uio_in[0]
*15 uio_in[1]
*16 uio_in[2]
*17 uio_in[3]
*18 uio_in[4]
*19 uio_in[5]
*20 uio_in[6]
*21 uio_in[7]
*22 net19
*23 net20
*24 net21
*25 net22
*26 net23
*27 net24
*28 net25
*29 net26
*30 net27
*31 net28
*32 net29
*33 net30
*34 net31
*35 net32
*36 net33
*37 net34
*38 uo_out[0]
*39 uo_out[1]
*40 uo_out[2]
*41 uo_out[3]
*42 uo_out[4]
*43 uo_out[5]
*44 uo_out[6]
*45 uo_out[7]
*46 _000_
*47 _001_
*48 _002_
*49 _003_
*50 _004_
*51 _005_
*52 _006_
*53 _007_
*54 _008_
*55 _009_
*56 _010_
*57 _011_
*58 _012_
*59 _013_
*60 _014_
*61 _015_
*62 _016_
*63 _017_
*64 _018_
*65 _019_
*66 _020_
*67 _021_
*68 _022_
*69 _023_
*70 _024_
*71 _025_
*72 _026_
*73 _027_
*74 _028_
*75 _029_
*76 _030_
*77 _031_
*78 _032_
*79 _033_
*80 _034_
*81 _035_
*82 _036_
*83 _037_
*84 _038_
*85 _039_
*86 _040_
*87 _041_
*88 _042_
*89 _043_
*90 _044_
*91 _045_
*92 _046_
*93 _047_
*94 _048_
*95 _049_
*96 _050_
*97 _051_
*98 _052_
*99 _053_
*100 _054_
*101 _055_
*102 _056_
*103 _057_
*104 _058_
*105 clknet_0_clk
*106 clknet_1_0__leaf_clk
*107 clknet_1_1__leaf_clk
*108 net1
*109 net10
*110 net11
*111 net12
*112 net13
*113 net14
*114 net15
*115 net16
*116 net17
*117 net18
*118 net2
*119 net3
*120 net4
*121 net5
*122 net6
*123 net7
*124 net8
*125 net9
*126 FILLER_0_0_109
*127 FILLER_0_0_113
*128 FILLER_0_0_125
*129 FILLER_0_0_137
*130 FILLER_0_0_141
*131 FILLER_0_0_15
*132 FILLER_0_0_153
*133 FILLER_0_0_165
*134 FILLER_0_0_169
*135 FILLER_0_0_181
*136 FILLER_0_0_193
*137 FILLER_0_0_197
*138 FILLER_0_0_209
*139 FILLER_0_0_221
*140 FILLER_0_0_225
*141 FILLER_0_0_237
*142 FILLER_0_0_249
*143 FILLER_0_0_253
*144 FILLER_0_0_265
*145 FILLER_0_0_27
*146 FILLER_0_0_277
*147 FILLER_0_0_281
*148 FILLER_0_0_29
*149 FILLER_0_0_293
*150 FILLER_0_0_3
*151 FILLER_0_0_305
*152 FILLER_0_0_309
*153 FILLER_0_0_321
*154 FILLER_0_0_333
*155 FILLER_0_0_41
*156 FILLER_0_0_53
*157 FILLER_0_0_57
*158 FILLER_0_0_69
*159 FILLER_0_0_81
*160 FILLER_0_0_85
*161 FILLER_0_0_97
*162 FILLER_0_10_109
*163 FILLER_0_10_121
*164 FILLER_0_10_133
*165 FILLER_0_10_139
*166 FILLER_0_10_141
*167 FILLER_0_10_15
*168 FILLER_0_10_153
*169 FILLER_0_10_165
*170 FILLER_0_10_177
*171 FILLER_0_10_189
*172 FILLER_0_10_195
*173 FILLER_0_10_197
*174 FILLER_0_10_209
*175 FILLER_0_10_221
*176 FILLER_0_10_233
*177 FILLER_0_10_245
*178 FILLER_0_10_251
*179 FILLER_0_10_253
*180 FILLER_0_10_265
*181 FILLER_0_10_27
*182 FILLER_0_10_277
*183 FILLER_0_10_289
*184 FILLER_0_10_29
*185 FILLER_0_10_3
*186 FILLER_0_10_301
*187 FILLER_0_10_307
*188 FILLER_0_10_309
*189 FILLER_0_10_321
*190 FILLER_0_10_333
*191 FILLER_0_10_41
*192 FILLER_0_10_53
*193 FILLER_0_10_65
*194 FILLER_0_10_77
*195 FILLER_0_10_83
*196 FILLER_0_10_85
*197 FILLER_0_10_97
*198 FILLER_0_11_105
*199 FILLER_0_11_111
*200 FILLER_0_11_113
*201 FILLER_0_11_125
*202 FILLER_0_11_137
*203 FILLER_0_11_149
*204 FILLER_0_11_15
*205 FILLER_0_11_161
*206 FILLER_0_11_167
*207 FILLER_0_11_169
*208 FILLER_0_11_181
*209 FILLER_0_11_193
*210 FILLER_0_11_205
*211 FILLER_0_11_217
*212 FILLER_0_11_223
*213 FILLER_0_11_225
*214 FILLER_0_11_237
*215 FILLER_0_11_249
*216 FILLER_0_11_261
*217 FILLER_0_11_27
*218 FILLER_0_11_273
*219 FILLER_0_11_279
*220 FILLER_0_11_281
*221 FILLER_0_11_293
*222 FILLER_0_11_3
*223 FILLER_0_11_305
*224 FILLER_0_11_317
*225 FILLER_0_11_329
*226 FILLER_0_11_39
*227 FILLER_0_11_51
*228 FILLER_0_11_55
*229 FILLER_0_11_57
*230 FILLER_0_11_69
*231 FILLER_0_11_81
*232 FILLER_0_11_93
*233 FILLER_0_12_109
*234 FILLER_0_12_121
*235 FILLER_0_12_133
*236 FILLER_0_12_139
*237 FILLER_0_12_141
*238 FILLER_0_12_15
*239 FILLER_0_12_153
*240 FILLER_0_12_165
*241 FILLER_0_12_177
*242 FILLER_0_12_189
*243 FILLER_0_12_195
*244 FILLER_0_12_197
*245 FILLER_0_12_209
*246 FILLER_0_12_221
*247 FILLER_0_12_233
*248 FILLER_0_12_245
*249 FILLER_0_12_251
*250 FILLER_0_12_253
*251 FILLER_0_12_265
*252 FILLER_0_12_27
*253 FILLER_0_12_277
*254 FILLER_0_12_289
*255 FILLER_0_12_29
*256 FILLER_0_12_3
*257 FILLER_0_12_301
*258 FILLER_0_12_307
*259 FILLER_0_12_309
*260 FILLER_0_12_321
*261 FILLER_0_12_333
*262 FILLER_0_12_41
*263 FILLER_0_12_53
*264 FILLER_0_12_65
*265 FILLER_0_12_77
*266 FILLER_0_12_83
*267 FILLER_0_12_85
*268 FILLER_0_12_97
*269 FILLER_0_13_105
*270 FILLER_0_13_111
*271 FILLER_0_13_113
*272 FILLER_0_13_125
*273 FILLER_0_13_137
*274 FILLER_0_13_149
*275 FILLER_0_13_15
*276 FILLER_0_13_161
*277 FILLER_0_13_167
*278 FILLER_0_13_169
*279 FILLER_0_13_181
*280 FILLER_0_13_193
*281 FILLER_0_13_205
*282 FILLER_0_13_217
*283 FILLER_0_13_223
*284 FILLER_0_13_225
*285 FILLER_0_13_237
*286 FILLER_0_13_249
*287 FILLER_0_13_261
*288 FILLER_0_13_27
*289 FILLER_0_13_273
*290 FILLER_0_13_279
*291 FILLER_0_13_281
*292 FILLER_0_13_293
*293 FILLER_0_13_3
*294 FILLER_0_13_305
*295 FILLER_0_13_317
*296 FILLER_0_13_329
*297 FILLER_0_13_39
*298 FILLER_0_13_51
*299 FILLER_0_13_55
*300 FILLER_0_13_57
*301 FILLER_0_13_69
*302 FILLER_0_13_81
*303 FILLER_0_13_93
*304 FILLER_0_14_109
*305 FILLER_0_14_121
*306 FILLER_0_14_133
*307 FILLER_0_14_139
*308 FILLER_0_14_141
*309 FILLER_0_14_15
*310 FILLER_0_14_153
*311 FILLER_0_14_165
*312 FILLER_0_14_177
*313 FILLER_0_14_189
*314 FILLER_0_14_195
*315 FILLER_0_14_197
*316 FILLER_0_14_209
*317 FILLER_0_14_221
*318 FILLER_0_14_233
*319 FILLER_0_14_245
*320 FILLER_0_14_251
*321 FILLER_0_14_253
*322 FILLER_0_14_265
*323 FILLER_0_14_27
*324 FILLER_0_14_277
*325 FILLER_0_14_289
*326 FILLER_0_14_29
*327 FILLER_0_14_3
*328 FILLER_0_14_301
*329 FILLER_0_14_307
*330 FILLER_0_14_309
*331 FILLER_0_14_321
*332 FILLER_0_14_333
*333 FILLER_0_14_41
*334 FILLER_0_14_53
*335 FILLER_0_14_65
*336 FILLER_0_14_77
*337 FILLER_0_14_83
*338 FILLER_0_14_85
*339 FILLER_0_14_97
*340 FILLER_0_15_105
*341 FILLER_0_15_111
*342 FILLER_0_15_113
*343 FILLER_0_15_125
*344 FILLER_0_15_137
*345 FILLER_0_15_149
*346 FILLER_0_15_15
*347 FILLER_0_15_161
*348 FILLER_0_15_167
*349 FILLER_0_15_169
*350 FILLER_0_15_181
*351 FILLER_0_15_193
*352 FILLER_0_15_205
*353 FILLER_0_15_217
*354 FILLER_0_15_223
*355 FILLER_0_15_225
*356 FILLER_0_15_237
*357 FILLER_0_15_249
*358 FILLER_0_15_261
*359 FILLER_0_15_27
*360 FILLER_0_15_273
*361 FILLER_0_15_279
*362 FILLER_0_15_281
*363 FILLER_0_15_293
*364 FILLER_0_15_3
*365 FILLER_0_15_305
*366 FILLER_0_15_317
*367 FILLER_0_15_329
*368 FILLER_0_15_39
*369 FILLER_0_15_51
*370 FILLER_0_15_55
*371 FILLER_0_15_57
*372 FILLER_0_15_69
*373 FILLER_0_15_81
*374 FILLER_0_15_93
*375 FILLER_0_16_109
*376 FILLER_0_16_121
*377 FILLER_0_16_133
*378 FILLER_0_16_139
*379 FILLER_0_16_141
*380 FILLER_0_16_15
*381 FILLER_0_16_153
*382 FILLER_0_16_165
*383 FILLER_0_16_177
*384 FILLER_0_16_189
*385 FILLER_0_16_195
*386 FILLER_0_16_197
*387 FILLER_0_16_209
*388 FILLER_0_16_221
*389 FILLER_0_16_233
*390 FILLER_0_16_245
*391 FILLER_0_16_251
*392 FILLER_0_16_253
*393 FILLER_0_16_265
*394 FILLER_0_16_27
*395 FILLER_0_16_277
*396 FILLER_0_16_289
*397 FILLER_0_16_29
*398 FILLER_0_16_3
*399 FILLER_0_16_301
*400 FILLER_0_16_307
*401 FILLER_0_16_309
*402 FILLER_0_16_321
*403 FILLER_0_16_333
*404 FILLER_0_16_41
*405 FILLER_0_16_53
*406 FILLER_0_16_65
*407 FILLER_0_16_77
*408 FILLER_0_16_83
*409 FILLER_0_16_85
*410 FILLER_0_16_97
*411 FILLER_0_17_105
*412 FILLER_0_17_111
*413 FILLER_0_17_113
*414 FILLER_0_17_125
*415 FILLER_0_17_137
*416 FILLER_0_17_149
*417 FILLER_0_17_15
*418 FILLER_0_17_161
*419 FILLER_0_17_167
*420 FILLER_0_17_169
*421 FILLER_0_17_181
*422 FILLER_0_17_193
*423 FILLER_0_17_205
*424 FILLER_0_17_217
*425 FILLER_0_17_223
*426 FILLER_0_17_225
*427 FILLER_0_17_237
*428 FILLER_0_17_249
*429 FILLER_0_17_261
*430 FILLER_0_17_27
*431 FILLER_0_17_273
*432 FILLER_0_17_279
*433 FILLER_0_17_281
*434 FILLER_0_17_293
*435 FILLER_0_17_3
*436 FILLER_0_17_305
*437 FILLER_0_17_317
*438 FILLER_0_17_329
*439 FILLER_0_17_39
*440 FILLER_0_17_51
*441 FILLER_0_17_55
*442 FILLER_0_17_57
*443 FILLER_0_17_69
*444 FILLER_0_17_81
*445 FILLER_0_17_93
*446 FILLER_0_18_109
*447 FILLER_0_18_121
*448 FILLER_0_18_133
*449 FILLER_0_18_139
*450 FILLER_0_18_141
*451 FILLER_0_18_15
*452 FILLER_0_18_153
*453 FILLER_0_18_165
*454 FILLER_0_18_177
*455 FILLER_0_18_189
*456 FILLER_0_18_195
*457 FILLER_0_18_197
*458 FILLER_0_18_209
*459 FILLER_0_18_221
*460 FILLER_0_18_233
*461 FILLER_0_18_245
*462 FILLER_0_18_251
*463 FILLER_0_18_253
*464 FILLER_0_18_265
*465 FILLER_0_18_27
*466 FILLER_0_18_277
*467 FILLER_0_18_289
*468 FILLER_0_18_29
*469 FILLER_0_18_3
*470 FILLER_0_18_301
*471 FILLER_0_18_307
*472 FILLER_0_18_309
*473 FILLER_0_18_321
*474 FILLER_0_18_333
*475 FILLER_0_18_41
*476 FILLER_0_18_53
*477 FILLER_0_18_65
*478 FILLER_0_18_77
*479 FILLER_0_18_83
*480 FILLER_0_18_85
*481 FILLER_0_18_97
*482 FILLER_0_19_105
*483 FILLER_0_19_111
*484 FILLER_0_19_113
*485 FILLER_0_19_125
*486 FILLER_0_19_137
*487 FILLER_0_19_149
*488 FILLER_0_19_15
*489 FILLER_0_19_161
*490 FILLER_0_19_167
*491 FILLER_0_19_169
*492 FILLER_0_19_181
*493 FILLER_0_19_193
*494 FILLER_0_19_205
*495 FILLER_0_19_217
*496 FILLER_0_19_223
*497 FILLER_0_19_225
*498 FILLER_0_19_237
*499 FILLER_0_19_249
*500 FILLER_0_19_261
*501 FILLER_0_19_27
*502 FILLER_0_19_273
*503 FILLER_0_19_279
*504 FILLER_0_19_281
*505 FILLER_0_19_293
*506 FILLER_0_19_3
*507 FILLER_0_19_305
*508 FILLER_0_19_317
*509 FILLER_0_19_329
*510 FILLER_0_19_39
*511 FILLER_0_19_51
*512 FILLER_0_19_55
*513 FILLER_0_19_57
*514 FILLER_0_19_69
*515 FILLER_0_19_81
*516 FILLER_0_19_93
*517 FILLER_0_1_105
*518 FILLER_0_1_111
*519 FILLER_0_1_113
*520 FILLER_0_1_125
*521 FILLER_0_1_137
*522 FILLER_0_1_149
*523 FILLER_0_1_15
*524 FILLER_0_1_161
*525 FILLER_0_1_167
*526 FILLER_0_1_169
*527 FILLER_0_1_181
*528 FILLER_0_1_193
*529 FILLER_0_1_205
*530 FILLER_0_1_217
*531 FILLER_0_1_223
*532 FILLER_0_1_225
*533 FILLER_0_1_237
*534 FILLER_0_1_249
*535 FILLER_0_1_261
*536 FILLER_0_1_27
*537 FILLER_0_1_273
*538 FILLER_0_1_279
*539 FILLER_0_1_281
*540 FILLER_0_1_293
*541 FILLER_0_1_3
*542 FILLER_0_1_305
*543 FILLER_0_1_317
*544 FILLER_0_1_329
*545 FILLER_0_1_39
*546 FILLER_0_1_51
*547 FILLER_0_1_55
*548 FILLER_0_1_57
*549 FILLER_0_1_69
*550 FILLER_0_1_81
*551 FILLER_0_1_93
*552 FILLER_0_20_109
*553 FILLER_0_20_121
*554 FILLER_0_20_133
*555 FILLER_0_20_139
*556 FILLER_0_20_141
*557 FILLER_0_20_15
*558 FILLER_0_20_153
*559 FILLER_0_20_165
*560 FILLER_0_20_177
*561 FILLER_0_20_189
*562 FILLER_0_20_195
*563 FILLER_0_20_197
*564 FILLER_0_20_209
*565 FILLER_0_20_221
*566 FILLER_0_20_233
*567 FILLER_0_20_245
*568 FILLER_0_20_251
*569 FILLER_0_20_253
*570 FILLER_0_20_265
*571 FILLER_0_20_27
*572 FILLER_0_20_277
*573 FILLER_0_20_289
*574 FILLER_0_20_29
*575 FILLER_0_20_3
*576 FILLER_0_20_301
*577 FILLER_0_20_307
*578 FILLER_0_20_309
*579 FILLER_0_20_321
*580 FILLER_0_20_333
*581 FILLER_0_20_41
*582 FILLER_0_20_53
*583 FILLER_0_20_65
*584 FILLER_0_20_77
*585 FILLER_0_20_83
*586 FILLER_0_20_85
*587 FILLER_0_20_97
*588 FILLER_0_21_105
*589 FILLER_0_21_111
*590 FILLER_0_21_113
*591 FILLER_0_21_125
*592 FILLER_0_21_137
*593 FILLER_0_21_149
*594 FILLER_0_21_15
*595 FILLER_0_21_161
*596 FILLER_0_21_167
*597 FILLER_0_21_169
*598 FILLER_0_21_181
*599 FILLER_0_21_193
*600 FILLER_0_21_205
*601 FILLER_0_21_217
*602 FILLER_0_21_223
*603 FILLER_0_21_225
*604 FILLER_0_21_237
*605 FILLER_0_21_249
*606 FILLER_0_21_261
*607 FILLER_0_21_27
*608 FILLER_0_21_273
*609 FILLER_0_21_279
*610 FILLER_0_21_281
*611 FILLER_0_21_293
*612 FILLER_0_21_3
*613 FILLER_0_21_305
*614 FILLER_0_21_317
*615 FILLER_0_21_329
*616 FILLER_0_21_39
*617 FILLER_0_21_51
*618 FILLER_0_21_55
*619 FILLER_0_21_57
*620 FILLER_0_21_69
*621 FILLER_0_21_81
*622 FILLER_0_21_93
*623 FILLER_0_22_109
*624 FILLER_0_22_121
*625 FILLER_0_22_133
*626 FILLER_0_22_139
*627 FILLER_0_22_141
*628 FILLER_0_22_15
*629 FILLER_0_22_153
*630 FILLER_0_22_165
*631 FILLER_0_22_177
*632 FILLER_0_22_189
*633 FILLER_0_22_195
*634 FILLER_0_22_197
*635 FILLER_0_22_209
*636 FILLER_0_22_221
*637 FILLER_0_22_233
*638 FILLER_0_22_245
*639 FILLER_0_22_251
*640 FILLER_0_22_253
*641 FILLER_0_22_265
*642 FILLER_0_22_27
*643 FILLER_0_22_277
*644 FILLER_0_22_289
*645 FILLER_0_22_29
*646 FILLER_0_22_3
*647 FILLER_0_22_301
*648 FILLER_0_22_307
*649 FILLER_0_22_309
*650 FILLER_0_22_321
*651 FILLER_0_22_333
*652 FILLER_0_22_41
*653 FILLER_0_22_53
*654 FILLER_0_22_65
*655 FILLER_0_22_77
*656 FILLER_0_22_83
*657 FILLER_0_22_85
*658 FILLER_0_22_97
*659 FILLER_0_23_105
*660 FILLER_0_23_111
*661 FILLER_0_23_113
*662 FILLER_0_23_125
*663 FILLER_0_23_137
*664 FILLER_0_23_149
*665 FILLER_0_23_15
*666 FILLER_0_23_161
*667 FILLER_0_23_167
*668 FILLER_0_23_169
*669 FILLER_0_23_181
*670 FILLER_0_23_193
*671 FILLER_0_23_205
*672 FILLER_0_23_217
*673 FILLER_0_23_223
*674 FILLER_0_23_225
*675 FILLER_0_23_237
*676 FILLER_0_23_249
*677 FILLER_0_23_261
*678 FILLER_0_23_27
*679 FILLER_0_23_273
*680 FILLER_0_23_279
*681 FILLER_0_23_281
*682 FILLER_0_23_293
*683 FILLER_0_23_3
*684 FILLER_0_23_305
*685 FILLER_0_23_317
*686 FILLER_0_23_329
*687 FILLER_0_23_39
*688 FILLER_0_23_51
*689 FILLER_0_23_55
*690 FILLER_0_23_57
*691 FILLER_0_23_69
*692 FILLER_0_23_81
*693 FILLER_0_23_93
*694 FILLER_0_24_109
*695 FILLER_0_24_121
*696 FILLER_0_24_133
*697 FILLER_0_24_139
*698 FILLER_0_24_141
*699 FILLER_0_24_15
*700 FILLER_0_24_153
*701 FILLER_0_24_165
*702 FILLER_0_24_177
*703 FILLER_0_24_189
*704 FILLER_0_24_195
*705 FILLER_0_24_197
*706 FILLER_0_24_209
*707 FILLER_0_24_221
*708 FILLER_0_24_233
*709 FILLER_0_24_245
*710 FILLER_0_24_251
*711 FILLER_0_24_253
*712 FILLER_0_24_265
*713 FILLER_0_24_27
*714 FILLER_0_24_277
*715 FILLER_0_24_289
*716 FILLER_0_24_29
*717 FILLER_0_24_3
*718 FILLER_0_24_301
*719 FILLER_0_24_307
*720 FILLER_0_24_309
*721 FILLER_0_24_321
*722 FILLER_0_24_333
*723 FILLER_0_24_41
*724 FILLER_0_24_53
*725 FILLER_0_24_65
*726 FILLER_0_24_77
*727 FILLER_0_24_83
*728 FILLER_0_24_85
*729 FILLER_0_24_97
*730 FILLER_0_25_105
*731 FILLER_0_25_111
*732 FILLER_0_25_113
*733 FILLER_0_25_125
*734 FILLER_0_25_137
*735 FILLER_0_25_149
*736 FILLER_0_25_15
*737 FILLER_0_25_161
*738 FILLER_0_25_167
*739 FILLER_0_25_169
*740 FILLER_0_25_181
*741 FILLER_0_25_193
*742 FILLER_0_25_205
*743 FILLER_0_25_217
*744 FILLER_0_25_223
*745 FILLER_0_25_225
*746 FILLER_0_25_237
*747 FILLER_0_25_249
*748 FILLER_0_25_261
*749 FILLER_0_25_27
*750 FILLER_0_25_273
*751 FILLER_0_25_279
*752 FILLER_0_25_281
*753 FILLER_0_25_293
*754 FILLER_0_25_3
*755 FILLER_0_25_305
*756 FILLER_0_25_317
*757 FILLER_0_25_329
*758 FILLER_0_25_39
*759 FILLER_0_25_51
*760 FILLER_0_25_55
*761 FILLER_0_25_57
*762 FILLER_0_25_69
*763 FILLER_0_25_81
*764 FILLER_0_25_93
*765 FILLER_0_26_109
*766 FILLER_0_26_121
*767 FILLER_0_26_133
*768 FILLER_0_26_139
*769 FILLER_0_26_141
*770 FILLER_0_26_15
*771 FILLER_0_26_153
*772 FILLER_0_26_165
*773 FILLER_0_26_177
*774 FILLER_0_26_189
*775 FILLER_0_26_195
*776 FILLER_0_26_197
*777 FILLER_0_26_209
*778 FILLER_0_26_221
*779 FILLER_0_26_233
*780 FILLER_0_26_245
*781 FILLER_0_26_251
*782 FILLER_0_26_253
*783 FILLER_0_26_265
*784 FILLER_0_26_27
*785 FILLER_0_26_277
*786 FILLER_0_26_289
*787 FILLER_0_26_29
*788 FILLER_0_26_3
*789 FILLER_0_26_301
*790 FILLER_0_26_307
*791 FILLER_0_26_309
*792 FILLER_0_26_321
*793 FILLER_0_26_333
*794 FILLER_0_26_41
*795 FILLER_0_26_53
*796 FILLER_0_26_65
*797 FILLER_0_26_77
*798 FILLER_0_26_83
*799 FILLER_0_26_85
*800 FILLER_0_26_97
*801 FILLER_0_27_105
*802 FILLER_0_27_111
*803 FILLER_0_27_113
*804 FILLER_0_27_125
*805 FILLER_0_27_137
*806 FILLER_0_27_149
*807 FILLER_0_27_15
*808 FILLER_0_27_161
*809 FILLER_0_27_167
*810 FILLER_0_27_169
*811 FILLER_0_27_181
*812 FILLER_0_27_193
*813 FILLER_0_27_205
*814 FILLER_0_27_217
*815 FILLER_0_27_223
*816 FILLER_0_27_225
*817 FILLER_0_27_237
*818 FILLER_0_27_249
*819 FILLER_0_27_261
*820 FILLER_0_27_27
*821 FILLER_0_27_273
*822 FILLER_0_27_279
*823 FILLER_0_27_281
*824 FILLER_0_27_293
*825 FILLER_0_27_3
*826 FILLER_0_27_305
*827 FILLER_0_27_317
*828 FILLER_0_27_329
*829 FILLER_0_27_39
*830 FILLER_0_27_51
*831 FILLER_0_27_55
*832 FILLER_0_27_57
*833 FILLER_0_27_69
*834 FILLER_0_27_81
*835 FILLER_0_27_93
*836 FILLER_0_28_109
*837 FILLER_0_28_121
*838 FILLER_0_28_133
*839 FILLER_0_28_139
*840 FILLER_0_28_141
*841 FILLER_0_28_15
*842 FILLER_0_28_153
*843 FILLER_0_28_165
*844 FILLER_0_28_177
*845 FILLER_0_28_189
*846 FILLER_0_28_195
*847 FILLER_0_28_197
*848 FILLER_0_28_209
*849 FILLER_0_28_221
*850 FILLER_0_28_233
*851 FILLER_0_28_245
*852 FILLER_0_28_251
*853 FILLER_0_28_253
*854 FILLER_0_28_265
*855 FILLER_0_28_27
*856 FILLER_0_28_277
*857 FILLER_0_28_289
*858 FILLER_0_28_29
*859 FILLER_0_28_3
*860 FILLER_0_28_301
*861 FILLER_0_28_307
*862 FILLER_0_28_309
*863 FILLER_0_28_321
*864 FILLER_0_28_333
*865 FILLER_0_28_41
*866 FILLER_0_28_53
*867 FILLER_0_28_65
*868 FILLER_0_28_77
*869 FILLER_0_28_83
*870 FILLER_0_28_85
*871 FILLER_0_28_97
*872 FILLER_0_29_105
*873 FILLER_0_29_111
*874 FILLER_0_29_113
*875 FILLER_0_29_125
*876 FILLER_0_29_137
*877 FILLER_0_29_149
*878 FILLER_0_29_15
*879 FILLER_0_29_161
*880 FILLER_0_29_167
*881 FILLER_0_29_169
*882 FILLER_0_29_181
*883 FILLER_0_29_193
*884 FILLER_0_29_205
*885 FILLER_0_29_217
*886 FILLER_0_29_223
*887 FILLER_0_29_225
*888 FILLER_0_29_237
*889 FILLER_0_29_249
*890 FILLER_0_29_261
*891 FILLER_0_29_27
*892 FILLER_0_29_273
*893 FILLER_0_29_279
*894 FILLER_0_29_281
*895 FILLER_0_29_293
*896 FILLER_0_29_3
*897 FILLER_0_29_305
*898 FILLER_0_29_317
*899 FILLER_0_29_329
*900 FILLER_0_29_39
*901 FILLER_0_29_51
*902 FILLER_0_29_55
*903 FILLER_0_29_57
*904 FILLER_0_29_69
*905 FILLER_0_29_81
*906 FILLER_0_29_93
*907 FILLER_0_2_109
*908 FILLER_0_2_121
*909 FILLER_0_2_133
*910 FILLER_0_2_139
*911 FILLER_0_2_141
*912 FILLER_0_2_15
*913 FILLER_0_2_153
*914 FILLER_0_2_165
*915 FILLER_0_2_177
*916 FILLER_0_2_189
*917 FILLER_0_2_195
*918 FILLER_0_2_197
*919 FILLER_0_2_209
*920 FILLER_0_2_221
*921 FILLER_0_2_233
*922 FILLER_0_2_245
*923 FILLER_0_2_251
*924 FILLER_0_2_253
*925 FILLER_0_2_265
*926 FILLER_0_2_27
*927 FILLER_0_2_277
*928 FILLER_0_2_289
*929 FILLER_0_2_29
*930 FILLER_0_2_3
*931 FILLER_0_2_301
*932 FILLER_0_2_307
*933 FILLER_0_2_309
*934 FILLER_0_2_321
*935 FILLER_0_2_333
*936 FILLER_0_2_41
*937 FILLER_0_2_53
*938 FILLER_0_2_65
*939 FILLER_0_2_77
*940 FILLER_0_2_83
*941 FILLER_0_2_85
*942 FILLER_0_2_97
*943 FILLER_0_30_109
*944 FILLER_0_30_121
*945 FILLER_0_30_133
*946 FILLER_0_30_139
*947 FILLER_0_30_141
*948 FILLER_0_30_15
*949 FILLER_0_30_153
*950 FILLER_0_30_165
*951 FILLER_0_30_177
*952 FILLER_0_30_189
*953 FILLER_0_30_195
*954 FILLER_0_30_197
*955 FILLER_0_30_209
*956 FILLER_0_30_221
*957 FILLER_0_30_233
*958 FILLER_0_30_245
*959 FILLER_0_30_251
*960 FILLER_0_30_253
*961 FILLER_0_30_265
*962 FILLER_0_30_27
*963 FILLER_0_30_277
*964 FILLER_0_30_289
*965 FILLER_0_30_29
*966 FILLER_0_30_3
*967 FILLER_0_30_301
*968 FILLER_0_30_307
*969 FILLER_0_30_309
*970 FILLER_0_30_321
*971 FILLER_0_30_333
*972 FILLER_0_30_41
*973 FILLER_0_30_53
*974 FILLER_0_30_65
*975 FILLER_0_30_77
*976 FILLER_0_30_83
*977 FILLER_0_30_85
*978 FILLER_0_30_97
*979 FILLER_0_31_105
*980 FILLER_0_31_111
*981 FILLER_0_31_113
*982 FILLER_0_31_125
*983 FILLER_0_31_137
*984 FILLER_0_31_149
*985 FILLER_0_31_15
*986 FILLER_0_31_161
*987 FILLER_0_31_167
*988 FILLER_0_31_169
*989 FILLER_0_31_181
*990 FILLER_0_31_193
*991 FILLER_0_31_205
*992 FILLER_0_31_217
*993 FILLER_0_31_223
*994 FILLER_0_31_225
*995 FILLER_0_31_237
*996 FILLER_0_31_249
*997 FILLER_0_31_261
*998 FILLER_0_31_27
*999 FILLER_0_31_273
*1000 FILLER_0_31_279
*1001 FILLER_0_31_281
*1002 FILLER_0_31_293
*1003 FILLER_0_31_3
*1004 FILLER_0_31_305
*1005 FILLER_0_31_317
*1006 FILLER_0_31_329
*1007 FILLER_0_31_39
*1008 FILLER_0_31_51
*1009 FILLER_0_31_55
*1010 FILLER_0_31_57
*1011 FILLER_0_31_69
*1012 FILLER_0_31_81
*1013 FILLER_0_31_93
*1014 FILLER_0_32_109
*1015 FILLER_0_32_121
*1016 FILLER_0_32_133
*1017 FILLER_0_32_139
*1018 FILLER_0_32_141
*1019 FILLER_0_32_15
*1020 FILLER_0_32_153
*1021 FILLER_0_32_165
*1022 FILLER_0_32_177
*1023 FILLER_0_32_189
*1024 FILLER_0_32_195
*1025 FILLER_0_32_197
*1026 FILLER_0_32_209
*1027 FILLER_0_32_213
*1028 FILLER_0_32_225
*1029 FILLER_0_32_237
*1030 FILLER_0_32_249
*1031 FILLER_0_32_253
*1032 FILLER_0_32_265
*1033 FILLER_0_32_27
*1034 FILLER_0_32_277
*1035 FILLER_0_32_289
*1036 FILLER_0_32_29
*1037 FILLER_0_32_3
*1038 FILLER_0_32_301
*1039 FILLER_0_32_307
*1040 FILLER_0_32_309
*1041 FILLER_0_32_321
*1042 FILLER_0_32_333
*1043 FILLER_0_32_41
*1044 FILLER_0_32_53
*1045 FILLER_0_32_65
*1046 FILLER_0_32_77
*1047 FILLER_0_32_83
*1048 FILLER_0_32_85
*1049 FILLER_0_32_97
*1050 FILLER_0_33_105
*1051 FILLER_0_33_111
*1052 FILLER_0_33_113
*1053 FILLER_0_33_125
*1054 FILLER_0_33_137
*1055 FILLER_0_33_141
*1056 FILLER_0_33_15
*1057 FILLER_0_33_161
*1058 FILLER_0_33_166
*1059 FILLER_0_33_169
*1060 FILLER_0_33_189
*1061 FILLER_0_33_212
*1062 FILLER_0_33_225
*1063 FILLER_0_33_237
*1064 FILLER_0_33_245
*1065 FILLER_0_33_253
*1066 FILLER_0_33_259
*1067 FILLER_0_33_264
*1068 FILLER_0_33_268
*1069 FILLER_0_33_27
*1070 FILLER_0_33_281
*1071 FILLER_0_33_293
*1072 FILLER_0_33_3
*1073 FILLER_0_33_305
*1074 FILLER_0_33_317
*1075 FILLER_0_33_329
*1076 FILLER_0_33_39
*1077 FILLER_0_33_51
*1078 FILLER_0_33_55
*1079 FILLER_0_33_57
*1080 FILLER_0_33_69
*1081 FILLER_0_33_81
*1082 FILLER_0_33_93
*1083 FILLER_0_34_109
*1084 FILLER_0_34_121
*1085 FILLER_0_34_133
*1086 FILLER_0_34_139
*1087 FILLER_0_34_141
*1088 FILLER_0_34_15
*1089 FILLER_0_34_153
*1090 FILLER_0_34_157
*1091 FILLER_0_34_171
*1092 FILLER_0_34_197
*1093 FILLER_0_34_219
*1094 FILLER_0_34_231
*1095 FILLER_0_34_245
*1096 FILLER_0_34_253
*1097 FILLER_0_34_27
*1098 FILLER_0_34_273
*1099 FILLER_0_34_29
*1100 FILLER_0_34_294
*1101 FILLER_0_34_3
*1102 FILLER_0_34_306
*1103 FILLER_0_34_309
*1104 FILLER_0_34_321
*1105 FILLER_0_34_333
*1106 FILLER_0_34_41
*1107 FILLER_0_34_53
*1108 FILLER_0_34_65
*1109 FILLER_0_34_77
*1110 FILLER_0_34_83
*1111 FILLER_0_34_85
*1112 FILLER_0_34_97
*1113 FILLER_0_35_105
*1114 FILLER_0_35_111
*1115 FILLER_0_35_113
*1116 FILLER_0_35_125
*1117 FILLER_0_35_133
*1118 FILLER_0_35_15
*1119 FILLER_0_35_155
*1120 FILLER_0_35_167
*1121 FILLER_0_35_169
*1122 FILLER_0_35_181
*1123 FILLER_0_35_187
*1124 FILLER_0_35_199
*1125 FILLER_0_35_212
*1126 FILLER_0_35_216
*1127 FILLER_0_35_223
*1128 FILLER_0_35_230
*1129 FILLER_0_35_238
*1130 FILLER_0_35_250
*1131 FILLER_0_35_262
*1132 FILLER_0_35_27
*1133 FILLER_0_35_274
*1134 FILLER_0_35_281
*1135 FILLER_0_35_289
*1136 FILLER_0_35_3
*1137 FILLER_0_35_301
*1138 FILLER_0_35_313
*1139 FILLER_0_35_325
*1140 FILLER_0_35_333
*1141 FILLER_0_35_39
*1142 FILLER_0_35_51
*1143 FILLER_0_35_55
*1144 FILLER_0_35_57
*1145 FILLER_0_35_69
*1146 FILLER_0_35_81
*1147 FILLER_0_35_93
*1148 FILLER_0_36_109
*1149 FILLER_0_36_121
*1150 FILLER_0_36_133
*1151 FILLER_0_36_139
*1152 FILLER_0_36_15
*1153 FILLER_0_36_183
*1154 FILLER_0_36_192
*1155 FILLER_0_36_197
*1156 FILLER_0_36_237
*1157 FILLER_0_36_245
*1158 FILLER_0_36_251
*1159 FILLER_0_36_253
*1160 FILLER_0_36_257
*1161 FILLER_0_36_269
*1162 FILLER_0_36_27
*1163 FILLER_0_36_277
*1164 FILLER_0_36_29
*1165 FILLER_0_36_292
*1166 FILLER_0_36_3
*1167 FILLER_0_36_303
*1168 FILLER_0_36_307
*1169 FILLER_0_36_309
*1170 FILLER_0_36_321
*1171 FILLER_0_36_333
*1172 FILLER_0_36_41
*1173 FILLER_0_36_53
*1174 FILLER_0_36_65
*1175 FILLER_0_36_77
*1176 FILLER_0_36_83
*1177 FILLER_0_36_85
*1178 FILLER_0_36_97
*1179 FILLER_0_37_105
*1180 FILLER_0_37_111
*1181 FILLER_0_37_113
*1182 FILLER_0_37_125
*1183 FILLER_0_37_137
*1184 FILLER_0_37_149
*1185 FILLER_0_37_15
*1186 FILLER_0_37_157
*1187 FILLER_0_37_169
*1188 FILLER_0_37_181
*1189 FILLER_0_37_189
*1190 FILLER_0_37_211
*1191 FILLER_0_37_222
*1192 FILLER_0_37_225
*1193 FILLER_0_37_231
*1194 FILLER_0_37_238
*1195 FILLER_0_37_249
*1196 FILLER_0_37_261
*1197 FILLER_0_37_268
*1198 FILLER_0_37_27
*1199 FILLER_0_37_281
*1200 FILLER_0_37_295
*1201 FILLER_0_37_3
*1202 FILLER_0_37_307
*1203 FILLER_0_37_319
*1204 FILLER_0_37_331
*1205 FILLER_0_37_39
*1206 FILLER_0_37_51
*1207 FILLER_0_37_55
*1208 FILLER_0_37_57
*1209 FILLER_0_37_69
*1210 FILLER_0_37_81
*1211 FILLER_0_37_93
*1212 FILLER_0_38_10
*1213 FILLER_0_38_102
*1214 FILLER_0_38_106
*1215 FILLER_0_38_110
*1216 FILLER_0_38_113
*1217 FILLER_0_38_118
*1218 FILLER_0_38_122
*1219 FILLER_0_38_126
*1220 FILLER_0_38_138
*1221 FILLER_0_38_14
*1222 FILLER_0_38_141
*1223 FILLER_0_38_161
*1224 FILLER_0_38_167
*1225 FILLER_0_38_18
*1226 FILLER_0_38_194
*1227 FILLER_0_38_219
*1228 FILLER_0_38_22
*1229 FILLER_0_38_236
*1230 FILLER_0_38_262
*1231 FILLER_0_38_312
*1232 FILLER_0_38_318
*1233 FILLER_0_38_32
*1234 FILLER_0_38_322
*1235 FILLER_0_38_327
*1236 FILLER_0_38_38
*1237 FILLER_0_38_42
*1238 FILLER_0_38_46
*1239 FILLER_0_38_50
*1240 FILLER_0_38_54
*1241 FILLER_0_38_57
*1242 FILLER_0_38_6
*1243 FILLER_0_38_62
*1244 FILLER_0_38_66
*1245 FILLER_0_38_70
*1246 FILLER_0_38_74
*1247 FILLER_0_38_78
*1248 FILLER_0_38_88
*1249 FILLER_0_38_94
*1250 FILLER_0_38_98
*1251 FILLER_0_3_105
*1252 FILLER_0_3_111
*1253 FILLER_0_3_113
*1254 FILLER_0_3_125
*1255 FILLER_0_3_137
*1256 FILLER_0_3_149
*1257 FILLER_0_3_15
*1258 FILLER_0_3_161
*1259 FILLER_0_3_167
*1260 FILLER_0_3_169
*1261 FILLER_0_3_181
*1262 FILLER_0_3_193
*1263 FILLER_0_3_205
*1264 FILLER_0_3_217
*1265 FILLER_0_3_223
*1266 FILLER_0_3_225
*1267 FILLER_0_3_237
*1268 FILLER_0_3_249
*1269 FILLER_0_3_261
*1270 FILLER_0_3_27
*1271 FILLER_0_3_273
*1272 FILLER_0_3_279
*1273 FILLER_0_3_281
*1274 FILLER_0_3_293
*1275 FILLER_0_3_3
*1276 FILLER_0_3_305
*1277 FILLER_0_3_317
*1278 FILLER_0_3_329
*1279 FILLER_0_3_39
*1280 FILLER_0_3_51
*1281 FILLER_0_3_55
*1282 FILLER_0_3_57
*1283 FILLER_0_3_69
*1284 FILLER_0_3_81
*1285 FILLER_0_3_93
*1286 FILLER_0_4_109
*1287 FILLER_0_4_121
*1288 FILLER_0_4_133
*1289 FILLER_0_4_139
*1290 FILLER_0_4_141
*1291 FILLER_0_4_15
*1292 FILLER_0_4_153
*1293 FILLER_0_4_165
*1294 FILLER_0_4_177
*1295 FILLER_0_4_189
*1296 FILLER_0_4_195
*1297 FILLER_0_4_197
*1298 FILLER_0_4_209
*1299 FILLER_0_4_221
*1300 FILLER_0_4_233
*1301 FILLER_0_4_245
*1302 FILLER_0_4_251
*1303 FILLER_0_4_253
*1304 FILLER_0_4_265
*1305 FILLER_0_4_27
*1306 FILLER_0_4_277
*1307 FILLER_0_4_289
*1308 FILLER_0_4_29
*1309 FILLER_0_4_3
*1310 FILLER_0_4_301
*1311 FILLER_0_4_307
*1312 FILLER_0_4_309
*1313 FILLER_0_4_321
*1314 FILLER_0_4_333
*1315 FILLER_0_4_41
*1316 FILLER_0_4_53
*1317 FILLER_0_4_65
*1318 FILLER_0_4_77
*1319 FILLER_0_4_83
*1320 FILLER_0_4_85
*1321 FILLER_0_4_97
*1322 FILLER_0_5_105
*1323 FILLER_0_5_111
*1324 FILLER_0_5_113
*1325 FILLER_0_5_125
*1326 FILLER_0_5_137
*1327 FILLER_0_5_149
*1328 FILLER_0_5_15
*1329 FILLER_0_5_161
*1330 FILLER_0_5_167
*1331 FILLER_0_5_169
*1332 FILLER_0_5_181
*1333 FILLER_0_5_193
*1334 FILLER_0_5_205
*1335 FILLER_0_5_217
*1336 FILLER_0_5_223
*1337 FILLER_0_5_225
*1338 FILLER_0_5_237
*1339 FILLER_0_5_249
*1340 FILLER_0_5_261
*1341 FILLER_0_5_27
*1342 FILLER_0_5_273
*1343 FILLER_0_5_279
*1344 FILLER_0_5_281
*1345 FILLER_0_5_293
*1346 FILLER_0_5_3
*1347 FILLER_0_5_305
*1348 FILLER_0_5_317
*1349 FILLER_0_5_329
*1350 FILLER_0_5_39
*1351 FILLER_0_5_51
*1352 FILLER_0_5_55
*1353 FILLER_0_5_57
*1354 FILLER_0_5_69
*1355 FILLER_0_5_81
*1356 FILLER_0_5_93
*1357 FILLER_0_6_109
*1358 FILLER_0_6_121
*1359 FILLER_0_6_133
*1360 FILLER_0_6_139
*1361 FILLER_0_6_141
*1362 FILLER_0_6_15
*1363 FILLER_0_6_153
*1364 FILLER_0_6_165
*1365 FILLER_0_6_177
*1366 FILLER_0_6_189
*1367 FILLER_0_6_195
*1368 FILLER_0_6_197
*1369 FILLER_0_6_209
*1370 FILLER_0_6_221
*1371 FILLER_0_6_233
*1372 FILLER_0_6_245
*1373 FILLER_0_6_251
*1374 FILLER_0_6_253
*1375 FILLER_0_6_265
*1376 FILLER_0_6_27
*1377 FILLER_0_6_277
*1378 FILLER_0_6_289
*1379 FILLER_0_6_29
*1380 FILLER_0_6_3
*1381 FILLER_0_6_301
*1382 FILLER_0_6_307
*1383 FILLER_0_6_309
*1384 FILLER_0_6_321
*1385 FILLER_0_6_333
*1386 FILLER_0_6_41
*1387 FILLER_0_6_53
*1388 FILLER_0_6_65
*1389 FILLER_0_6_77
*1390 FILLER_0_6_83
*1391 FILLER_0_6_85
*1392 FILLER_0_6_97
*1393 FILLER_0_7_105
*1394 FILLER_0_7_111
*1395 FILLER_0_7_113
*1396 FILLER_0_7_125
*1397 FILLER_0_7_137
*1398 FILLER_0_7_149
*1399 FILLER_0_7_15
*1400 FILLER_0_7_161
*1401 FILLER_0_7_167
*1402 FILLER_0_7_169
*1403 FILLER_0_7_181
*1404 FILLER_0_7_193
*1405 FILLER_0_7_205
*1406 FILLER_0_7_217
*1407 FILLER_0_7_223
*1408 FILLER_0_7_225
*1409 FILLER_0_7_237
*1410 FILLER_0_7_249
*1411 FILLER_0_7_261
*1412 FILLER_0_7_27
*1413 FILLER_0_7_273
*1414 FILLER_0_7_279
*1415 FILLER_0_7_281
*1416 FILLER_0_7_293
*1417 FILLER_0_7_3
*1418 FILLER_0_7_305
*1419 FILLER_0_7_317
*1420 FILLER_0_7_329
*1421 FILLER_0_7_39
*1422 FILLER_0_7_51
*1423 FILLER_0_7_55
*1424 FILLER_0_7_57
*1425 FILLER_0_7_69
*1426 FILLER_0_7_81
*1427 FILLER_0_7_93
*1428 FILLER_0_8_109
*1429 FILLER_0_8_121
*1430 FILLER_0_8_133
*1431 FILLER_0_8_139
*1432 FILLER_0_8_141
*1433 FILLER_0_8_15
*1434 FILLER_0_8_153
*1435 FILLER_0_8_165
*1436 FILLER_0_8_177
*1437 FILLER_0_8_189
*1438 FILLER_0_8_195
*1439 FILLER_0_8_197
*1440 FILLER_0_8_209
*1441 FILLER_0_8_221
*1442 FILLER_0_8_233
*1443 FILLER_0_8_245
*1444 FILLER_0_8_251
*1445 FILLER_0_8_253
*1446 FILLER_0_8_265
*1447 FILLER_0_8_27
*1448 FILLER_0_8_277
*1449 FILLER_0_8_289
*1450 FILLER_0_8_29
*1451 FILLER_0_8_3
*1452 FILLER_0_8_301
*1453 FILLER_0_8_307
*1454 FILLER_0_8_309
*1455 FILLER_0_8_321
*1456 FILLER_0_8_333
*1457 FILLER_0_8_41
*1458 FILLER_0_8_53
*1459 FILLER_0_8_65
*1460 FILLER_0_8_77
*1461 FILLER_0_8_83
*1462 FILLER_0_8_85
*1463 FILLER_0_8_97
*1464 FILLER_0_9_105
*1465 FILLER_0_9_111
*1466 FILLER_0_9_113
*1467 FILLER_0_9_125
*1468 FILLER_0_9_137
*1469 FILLER_0_9_149
*1470 FILLER_0_9_15
*1471 FILLER_0_9_161
*1472 FILLER_0_9_167
*1473 FILLER_0_9_169
*1474 FILLER_0_9_181
*1475 FILLER_0_9_193
*1476 FILLER_0_9_205
*1477 FILLER_0_9_217
*1478 FILLER_0_9_223
*1479 FILLER_0_9_225
*1480 FILLER_0_9_237
*1481 FILLER_0_9_249
*1482 FILLER_0_9_261
*1483 FILLER_0_9_27
*1484 FILLER_0_9_273
*1485 FILLER_0_9_279
*1486 FILLER_0_9_281