*SPEF "ieee 1481-1999"
*DESIGN "tt_um_topTDC"
*DATE "13:01:52 Thursday April 11, 2024"
*VENDOR "The OpenROAD Project"
*PROGRAM "OpenROAD"
*VERSION "0889970d1790a2617e69f253221b8bd7626e51dc"
*DESIGN_FLOW "NAME_SCOPE LOCAL" "PIN_CAP NONE"
*DIVIDER /
*DELIMITER :
*BUS_DELIMITER []
*T_UNIT 1 NS
*C_UNIT 1 PF
*R_UNIT 1 OHM
*L_UNIT 1 HENRY

*NAME_MAP
*3 clk
*4 ena
*5 rst_n
*6 ui_in[0]
*7 ui_in[1]
*8 ui_in[2]
*9 ui_in[3]
*10 ui_in[4]
*11 ui_in[5]
*12 ui_in[6]
*13 ui_in[7]
*14 uio_in[0]
*15 uio_in[1]
*16 uio_in[2]
*17 uio_in[3]
*18 uio_in[4]
*19 uio_in[5]
*20 uio_in[6]
*21 uio_in[7]
*22 net23
*23 net24
*24 net3
*25 net4
*26 net5
*27 net6
*28 net7
*29 net8
*30 uio_out[0]
*31 uio_out[1]
*32 net9
*33 net10
*34 net11
*35 net12
*36 net13
*37 net14
*38 net15
*39 net16
*40 net17
*41 net18
*42 net19
*43 net20
*44 net21
*45 net22
*46 U1\.aux\[0\]
*47 U1\.aux\[1\]
*48 U1\.aux\[2\]
*49 U1\.aux\[3\]
*50 U1\.aux\[4\]
*51 U1\.aux\[5\]
*52 U1\.aux\[6\]
*53 U1\.aux\[7\]
*54 U1\.bandera
*55 U1\.contador\.q\[0\]
*56 U1\.contador\.q\[1\]
*57 U1\.contador\.q\[2\]
*58 U1\.contador\.q\[3\]
*59 U1\.contador\.q\[4\]
*60 U1\.contador\.q\[5\]
*61 U1\.contador\.q\[6\]
*62 U1\.contador\.q\[7\]
*63 U1\.contador\.start
*64 U1\.edo_futuro\[0\]
*65 U1\.edo_futuro\[1\]
*66 U1\.edo_futuro\[2\]
*67 U1\.eot
*68 U1\.estado\[0\]
*69 U1\.estado\[1\]
*70 U1\.estado\[2\]
*71 U1\.stt
*72 U1\.temp\[0\]
*73 U1\.temp\[1\]
*74 U1\.temp\[2\]
*75 U1\.temp\[3\]
*76 U1\.temp\[4\]
*77 U1\.temp\[5\]
*78 U1\.temp\[6\]
*79 U1\.temp\[7\]
*80 U1\.transmisor\.B
*81 U1\.transmisor\.Dreg\[0\]
*82 U1\.transmisor\.Dreg\[1\]
*83 U1\.transmisor\.Dreg\[2\]
*84 U1\.transmisor\.Dreg\[3\]
*85 U1\.transmisor\.Dreg\[4\]
*86 U1\.transmisor\.Dreg\[5\]
*87 U1\.transmisor\.Dreg\[6\]
*88 U1\.transmisor\.Dreg\[7\]
*89 U1\.transmisor\.TX
*90 U1\.transmisor\.estado\[0\]
*91 U1\.transmisor\.estado\[1\]
*92 U1\.transmisor\.estado\[2\]
*93 U1\.transmisor\.estado\[3\]
*94 U1\.transmisor\.k\[0\]
*95 U1\.transmisor\.k\[10\]
*96 U1\.transmisor\.k\[11\]
*97 U1\.transmisor\.k\[12\]
*98 U1\.transmisor\.k\[1\]
*99 U1\.transmisor\.k\[2\]
*100 U1\.transmisor\.k\[3\]
*101 U1\.transmisor\.k\[4\]
*102 U1\.transmisor\.k\[5\]
*103 U1\.transmisor\.k\[6\]
*104 U1\.transmisor\.k\[7\]
*105 U1\.transmisor\.k\[8\]
*106 U1\.transmisor\.k\[9\]
*107 U1\.transmisor\.nex_estado\[0\]
*108 U1\.transmisor\.nex_estado\[1\]
*109 U1\.transmisor\.nex_estado\[2\]
*110 U1\.transmisor\.nex_estado\[3\]
*111 _000_
*112 _001_
*113 _002_
*114 _003_
*115 _004_
*116 _005_
*117 _006_
*118 _007_
*119 _008_
*120 _009_
*121 _010_
*122 _011_
*123 _012_
*124 _013_
*125 _014_
*126 _015_
*127 _016_
*128 _017_
*129 _018_
*130 _019_
*131 _020_
*132 _021_
*133 _022_
*134 _023_
*135 _024_
*136 _025_
*137 _026_
*138 _027_
*139 _028_
*140 _029_
*141 _030_
*142 _031_
*143 _032_
*144 _033_
*145 _034_
*146 _035_
*147 _036_
*148 _037_
*149 _038_
*150 _039_
*151 _040_
*152 _041_
*153 _042_
*154 _043_
*155 _044_
*156 _045_
*157 _046_
*158 _047_
*159 _048_
*160 _049_
*161 _050_
*162 _051_
*163 _052_
*164 _053_
*165 _054_
*166 _055_
*167 _056_
*168 _057_
*169 _058_
*170 _059_
*171 _060_
*172 _061_
*173 _062_
*174 _063_
*175 _064_
*176 _065_
*177 _066_
*178 _067_
*179 _068_
*180 _069_
*181 _070_
*182 _071_
*183 _072_
*184 _073_
*185 _074_
*186 _075_
*187 _076_
*188 _077_
*189 _078_
*190 _079_
*191 _080_
*192 _081_
*193 _082_
*194 _083_
*195 _084_
*196 _085_
*197 _086_
*198 _087_
*199 _088_
*200 _089_
*201 _090_
*202 _091_
*203 _092_
*204 _093_
*205 _094_
*206 _095_
*207 _096_
*208 _097_
*209 _098_
*210 _099_
*211 _100_
*212 _101_
*213 _102_
*214 _103_
*215 _104_
*216 _105_
*217 _106_
*218 _107_
*219 _108_
*220 _109_
*221 _110_
*222 _111_
*223 _112_
*224 _113_
*225 _114_
*226 _115_
*227 _116_
*228 _117_
*229 _118_
*230 _119_
*231 _120_
*232 _121_
*233 _122_
*234 _123_
*235 _124_
*236 _125_
*237 _126_
*238 _127_
*239 _128_
*240 _129_
*241 _130_
*242 _131_
*243 _132_
*244 _133_
*245 _134_
*246 _135_
*247 _136_
*248 _137_
*249 _138_
*250 _139_
*251 _140_
*252 _141_
*253 _142_
*254 _143_
*255 _144_
*256 _145_
*257 _146_
*258 _147_
*259 _148_
*260 _149_
*261 _150_
*262 _151_
*263 _152_
*264 _153_
*265 _154_
*266 _155_
*267 _156_
*268 _157_
*269 _158_
*270 _159_
*271 _160_
*272 _161_
*273 _162_
*274 _163_
*275 _164_
*276 _165_
*277 _166_
*278 _167_
*279 _168_
*280 _169_
*281 _170_
*282 _171_
*283 _172_
*284 clknet_0_clk
*285 clknet_2_0__leaf_clk
*286 clknet_2_1__leaf_clk
*287 clknet_2_2__leaf_clk
*288 clknet_2_3__leaf_clk
*289 net1
*290 net2
*291 net25
*292 net26
*293 net27
*294 net28
*295 net29
*296 net30
*297 net31
*298 net32
*299 net33
*300 net34
*301 net35
*302 net36
*303 net37
*304 net38
*305 net39
*306 net40
*307 net41
*308 net42
*309 net43
*310 net44
*311 net45
*312 net46
*313 net47
*314 net48
*315 net49
*316 net50
*317 net51
*318 net52
*319 net53
*320 net54
*321 net55
*322 net56
*323 net57
*324 net58
*325 net59
*326 net60
*327 net61
*328 net62
*329 net63
*330 net64
*331 net65
*332 net66
*333 net67
*334 FILLER_0_0_109
*335 FILLER_0_0_113
*336 FILLER_0_0_125
*337 FILLER_0_0_137
*338 FILLER_0_0_141
*339 FILLER_0_0_15
*340 FILLER_0_0_153
*341 FILLER_0_0_165
*342 FILLER_0_0_169
*343 FILLER_0_0_181
*344 FILLER_0_0_193
*345 FILLER_0_0_197
*346 FILLER_0_0_209
*347 FILLER_0_0_221
*348 FILLER_0_0_225
*349 FILLER_0_0_237
*350 FILLER_0_0_249
*351 FILLER_0_0_253
*352 FILLER_0_0_265
*353 FILLER_0_0_27
*354 FILLER_0_0_277
*355 FILLER_0_0_281
*356 FILLER_0_0_29
*357 FILLER_0_0_293
*358 FILLER_0_0_3
*359 FILLER_0_0_305
*360 FILLER_0_0_309
*361 FILLER_0_0_321
*362 FILLER_0_0_333
*363 FILLER_0_0_41
*364 FILLER_0_0_53
*365 FILLER_0_0_57
*366 FILLER_0_0_69
*367 FILLER_0_0_81
*368 FILLER_0_0_85
*369 FILLER_0_0_97
*370 FILLER_0_10_109
*371 FILLER_0_10_121
*372 FILLER_0_10_133
*373 FILLER_0_10_139
*374 FILLER_0_10_141
*375 FILLER_0_10_15
*376 FILLER_0_10_153
*377 FILLER_0_10_165
*378 FILLER_0_10_177
*379 FILLER_0_10_189
*380 FILLER_0_10_195
*381 FILLER_0_10_197
*382 FILLER_0_10_209
*383 FILLER_0_10_221
*384 FILLER_0_10_233
*385 FILLER_0_10_245
*386 FILLER_0_10_251
*387 FILLER_0_10_253
*388 FILLER_0_10_265
*389 FILLER_0_10_27
*390 FILLER_0_10_277
*391 FILLER_0_10_289
*392 FILLER_0_10_29
*393 FILLER_0_10_3
*394 FILLER_0_10_301
*395 FILLER_0_10_307
*396 FILLER_0_10_309
*397 FILLER_0_10_321
*398 FILLER_0_10_333
*399 FILLER_0_10_41
*400 FILLER_0_10_53
*401 FILLER_0_10_65
*402 FILLER_0_10_77
*403 FILLER_0_10_83
*404 FILLER_0_10_85
*405 FILLER_0_10_97
*406 FILLER_0_11_105
*407 FILLER_0_11_111
*408 FILLER_0_11_113
*409 FILLER_0_11_125
*410 FILLER_0_11_137
*411 FILLER_0_11_149
*412 FILLER_0_11_15
*413 FILLER_0_11_161
*414 FILLER_0_11_167
*415 FILLER_0_11_169
*416 FILLER_0_11_181
*417 FILLER_0_11_193
*418 FILLER_0_11_205
*419 FILLER_0_11_217
*420 FILLER_0_11_223
*421 FILLER_0_11_225
*422 FILLER_0_11_237
*423 FILLER_0_11_249
*424 FILLER_0_11_261
*425 FILLER_0_11_27
*426 FILLER_0_11_273
*427 FILLER_0_11_279
*428 FILLER_0_11_281
*429 FILLER_0_11_293
*430 FILLER_0_11_3
*431 FILLER_0_11_305
*432 FILLER_0_11_317
*433 FILLER_0_11_329
*434 FILLER_0_11_39
*435 FILLER_0_11_51
*436 FILLER_0_11_55
*437 FILLER_0_11_57
*438 FILLER_0_11_69
*439 FILLER_0_11_81
*440 FILLER_0_11_93
*441 FILLER_0_12_109
*442 FILLER_0_12_121
*443 FILLER_0_12_133
*444 FILLER_0_12_139
*445 FILLER_0_12_141
*446 FILLER_0_12_15
*447 FILLER_0_12_153
*448 FILLER_0_12_165
*449 FILLER_0_12_177
*450 FILLER_0_12_189
*451 FILLER_0_12_195
*452 FILLER_0_12_197
*453 FILLER_0_12_209
*454 FILLER_0_12_221
*455 FILLER_0_12_233
*456 FILLER_0_12_245
*457 FILLER_0_12_251
*458 FILLER_0_12_253
*459 FILLER_0_12_265
*460 FILLER_0_12_27
*461 FILLER_0_12_277
*462 FILLER_0_12_289
*463 FILLER_0_12_29
*464 FILLER_0_12_3
*465 FILLER_0_12_301
*466 FILLER_0_12_307
*467 FILLER_0_12_309
*468 FILLER_0_12_321
*469 FILLER_0_12_333
*470 FILLER_0_12_41
*471 FILLER_0_12_53
*472 FILLER_0_12_65
*473 FILLER_0_12_77
*474 FILLER_0_12_83
*475 FILLER_0_12_85
*476 FILLER_0_12_97
*477 FILLER_0_13_105
*478 FILLER_0_13_111
*479 FILLER_0_13_113
*480 FILLER_0_13_125
*481 FILLER_0_13_137
*482 FILLER_0_13_149
*483 FILLER_0_13_15
*484 FILLER_0_13_161
*485 FILLER_0_13_167
*486 FILLER_0_13_169
*487 FILLER_0_13_181
*488 FILLER_0_13_193
*489 FILLER_0_13_205
*490 FILLER_0_13_217
*491 FILLER_0_13_223
*492 FILLER_0_13_225
*493 FILLER_0_13_237
*494 FILLER_0_13_249
*495 FILLER_0_13_261
*496 FILLER_0_13_27
*497 FILLER_0_13_273
*498 FILLER_0_13_279
*499 FILLER_0_13_281
*500 FILLER_0_13_293
*501 FILLER_0_13_3
*502 FILLER_0_13_305
*503 FILLER_0_13_317
*504 FILLER_0_13_329
*505 FILLER_0_13_39
*506 FILLER_0_13_51
*507 FILLER_0_13_55
*508 FILLER_0_13_57
*509 FILLER_0_13_69
*510 FILLER_0_13_81
*511 FILLER_0_13_93
*512 FILLER_0_14_109
*513 FILLER_0_14_121
*514 FILLER_0_14_133
*515 FILLER_0_14_139
*516 FILLER_0_14_141
*517 FILLER_0_14_15
*518 FILLER_0_14_153
*519 FILLER_0_14_165
*520 FILLER_0_14_177
*521 FILLER_0_14_189
*522 FILLER_0_14_195
*523 FILLER_0_14_197
*524 FILLER_0_14_209
*525 FILLER_0_14_221
*526 FILLER_0_14_233
*527 FILLER_0_14_245
*528 FILLER_0_14_251
*529 FILLER_0_14_253
*530 FILLER_0_14_265
*531 FILLER_0_14_27
*532 FILLER_0_14_277
*533 FILLER_0_14_289
*534 FILLER_0_14_29
*535 FILLER_0_14_3
*536 FILLER_0_14_301
*537 FILLER_0_14_307
*538 FILLER_0_14_309
*539 FILLER_0_14_321
*540 FILLER_0_14_333
*541 FILLER_0_14_41
*542 FILLER_0_14_53
*543 FILLER_0_14_65
*544 FILLER_0_14_77
*545 FILLER_0_14_83
*546 FILLER_0_14_85
*547 FILLER_0_14_97
*548 FILLER_0_15_105
*549 FILLER_0_15_111
*550 FILLER_0_15_113
*551 FILLER_0_15_125
*552 FILLER_0_15_137
*553 FILLER_0_15_149
*554 FILLER_0_15_15
*555 FILLER_0_15_161
*556 FILLER_0_15_167
*557 FILLER_0_15_169
*558 FILLER_0_15_181
*559 FILLER_0_15_193
*560 FILLER_0_15_205
*561 FILLER_0_15_217
*562 FILLER_0_15_223
*563 FILLER_0_15_225
*564 FILLER_0_15_237
*565 FILLER_0_15_249
*566 FILLER_0_15_261
*567 FILLER_0_15_27
*568 FILLER_0_15_273
*569 FILLER_0_15_279
*570 FILLER_0_15_281
*571 FILLER_0_15_293
*572 FILLER_0_15_3
*573 FILLER_0_15_305
*574 FILLER_0_15_317
*575 FILLER_0_15_329
*576 FILLER_0_15_39
*577 FILLER_0_15_51
*578 FILLER_0_15_55
*579 FILLER_0_15_57
*580 FILLER_0_15_69
*581 FILLER_0_15_81
*582 FILLER_0_15_93
*583 FILLER_0_16_109
*584 FILLER_0_16_121
*585 FILLER_0_16_133
*586 FILLER_0_16_139
*587 FILLER_0_16_141
*588 FILLER_0_16_15
*589 FILLER_0_16_153
*590 FILLER_0_16_165
*591 FILLER_0_16_177
*592 FILLER_0_16_189
*593 FILLER_0_16_195
*594 FILLER_0_16_197
*595 FILLER_0_16_209
*596 FILLER_0_16_221
*597 FILLER_0_16_233
*598 FILLER_0_16_245
*599 FILLER_0_16_251
*600 FILLER_0_16_253
*601 FILLER_0_16_265
*602 FILLER_0_16_27
*603 FILLER_0_16_277
*604 FILLER_0_16_289
*605 FILLER_0_16_29
*606 FILLER_0_16_3
*607 FILLER_0_16_301
*608 FILLER_0_16_307
*609 FILLER_0_16_309
*610 FILLER_0_16_321
*611 FILLER_0_16_333
*612 FILLER_0_16_41
*613 FILLER_0_16_53
*614 FILLER_0_16_65
*615 FILLER_0_16_77
*616 FILLER_0_16_83
*617 FILLER_0_16_85
*618 FILLER_0_16_97
*619 FILLER_0_17_105
*620 FILLER_0_17_111
*621 FILLER_0_17_113
*622 FILLER_0_17_125
*623 FILLER_0_17_137
*624 FILLER_0_17_149
*625 FILLER_0_17_15
*626 FILLER_0_17_161
*627 FILLER_0_17_167
*628 FILLER_0_17_169
*629 FILLER_0_17_181
*630 FILLER_0_17_193
*631 FILLER_0_17_205
*632 FILLER_0_17_217
*633 FILLER_0_17_223
*634 FILLER_0_17_225
*635 FILLER_0_17_237
*636 FILLER_0_17_249
*637 FILLER_0_17_261
*638 FILLER_0_17_27
*639 FILLER_0_17_273
*640 FILLER_0_17_279
*641 FILLER_0_17_281
*642 FILLER_0_17_293
*643 FILLER_0_17_3
*644 FILLER_0_17_305
*645 FILLER_0_17_317
*646 FILLER_0_17_329
*647 FILLER_0_17_39
*648 FILLER_0_17_51
*649 FILLER_0_17_55
*650 FILLER_0_17_57
*651 FILLER_0_17_69
*652 FILLER_0_17_81
*653 FILLER_0_17_93
*654 FILLER_0_18_109
*655 FILLER_0_18_121
*656 FILLER_0_18_133
*657 FILLER_0_18_139
*658 FILLER_0_18_141
*659 FILLER_0_18_15
*660 FILLER_0_18_153
*661 FILLER_0_18_165
*662 FILLER_0_18_177
*663 FILLER_0_18_189
*664 FILLER_0_18_195
*665 FILLER_0_18_197
*666 FILLER_0_18_209
*667 FILLER_0_18_221
*668 FILLER_0_18_233
*669 FILLER_0_18_245
*670 FILLER_0_18_251
*671 FILLER_0_18_253
*672 FILLER_0_18_265
*673 FILLER_0_18_27
*674 FILLER_0_18_277
*675 FILLER_0_18_289
*676 FILLER_0_18_29
*677 FILLER_0_18_3
*678 FILLER_0_18_301
*679 FILLER_0_18_307
*680 FILLER_0_18_309
*681 FILLER_0_18_321
*682 FILLER_0_18_333
*683 FILLER_0_18_41
*684 FILLER_0_18_53
*685 FILLER_0_18_65
*686 FILLER_0_18_77
*687 FILLER_0_18_83
*688 FILLER_0_18_85
*689 FILLER_0_18_97
*690 FILLER_0_19_105
*691 FILLER_0_19_111
*692 FILLER_0_19_113
*693 FILLER_0_19_125
*694 FILLER_0_19_137
*695 FILLER_0_19_149
*696 FILLER_0_19_15
*697 FILLER_0_19_161
*698 FILLER_0_19_167
*699 FILLER_0_19_169
*700 FILLER_0_19_181
*701 FILLER_0_19_193
*702 FILLER_0_19_205
*703 FILLER_0_19_217
*704 FILLER_0_19_223
*705 FILLER_0_19_225
*706 FILLER_0_19_237
*707 FILLER_0_19_249
*708 FILLER_0_19_261
*709 FILLER_0_19_27
*710 FILLER_0_19_273
*711 FILLER_0_19_279
*712 FILLER_0_19_281
*713 FILLER_0_19_293
*714 FILLER_0_19_3
*715 FILLER_0_19_305
*716 FILLER_0_19_317
*717 FILLER_0_19_329
*718 FILLER_0_19_39
*719 FILLER_0_19_51
*720 FILLER_0_19_55
*721 FILLER_0_19_57
*722 FILLER_0_19_69
*723 FILLER_0_19_81
*724 FILLER_0_19_93
*725 FILLER_0_1_105
*726 FILLER_0_1_111
*727 FILLER_0_1_113
*728 FILLER_0_1_125
*729 FILLER_0_1_137
*730 FILLER_0_1_149
*731 FILLER_0_1_15
*732 FILLER_0_1_161
*733 FILLER_0_1_167
*734 FILLER_0_1_169
*735 FILLER_0_1_181
*736 FILLER_0_1_193
*737 FILLER_0_1_205
*738 FILLER_0_1_217
*739 FILLER_0_1_223
*740 FILLER_0_1_225
*741 FILLER_0_1_237
*742 FILLER_0_1_249
*743 FILLER_0_1_261
*744 FILLER_0_1_27
*745 FILLER_0_1_273
*746 FILLER_0_1_279
*747 FILLER_0_1_281
*748 FILLER_0_1_293
*749 FILLER_0_1_3
*750 FILLER_0_1_305
*751 FILLER_0_1_317
*752 FILLER_0_1_329
*753 FILLER_0_1_39
*754 FILLER_0_1_51
*755 FILLER_0_1_55
*756 FILLER_0_1_57
*757 FILLER_0_1_69
*758 FILLER_0_1_81
*759 FILLER_0_1_93
*760 FILLER_0_20_109
*761 FILLER_0_20_121
*762 FILLER_0_20_133
*763 FILLER_0_20_139
*764 FILLER_0_20_141
*765 FILLER_0_20_15
*766 FILLER_0_20_153
*767 FILLER_0_20_165
*768 FILLER_0_20_177
*769 FILLER_0_20_189
*770 FILLER_0_20_195
*771 FILLER_0_20_197
*772 FILLER_0_20_209
*773 FILLER_0_20_221
*774 FILLER_0_20_233
*775 FILLER_0_20_245
*776 FILLER_0_20_251
*777 FILLER_0_20_253
*778 FILLER_0_20_265
*779 FILLER_0_20_27
*780 FILLER_0_20_277
*781 FILLER_0_20_289
*782 FILLER_0_20_29
*783 FILLER_0_20_3
*784 FILLER_0_20_301
*785 FILLER_0_20_307
*786 FILLER_0_20_309
*787 FILLER_0_20_321
*788 FILLER_0_20_333
*789 FILLER_0_20_41
*790 FILLER_0_20_53
*791 FILLER_0_20_65
*792 FILLER_0_20_77
*793 FILLER_0_20_83
*794 FILLER_0_20_85
*795 FILLER_0_20_97
*796 FILLER_0_21_105
*797 FILLER_0_21_111
*798 FILLER_0_21_113
*799 FILLER_0_21_125
*800 FILLER_0_21_137
*801 FILLER_0_21_149
*802 FILLER_0_21_15
*803 FILLER_0_21_161
*804 FILLER_0_21_167
*805 FILLER_0_21_169
*806 FILLER_0_21_181
*807 FILLER_0_21_193
*808 FILLER_0_21_205
*809 FILLER_0_21_217
*810 FILLER_0_21_223
*811 FILLER_0_21_225
*812 FILLER_0_21_237
*813 FILLER_0_21_249
*814 FILLER_0_21_261
*815 FILLER_0_21_27
*816 FILLER_0_21_273
*817 FILLER_0_21_279
*818 FILLER_0_21_281
*819 FILLER_0_21_293
*820 FILLER_0_21_3
*821 FILLER_0_21_305
*822 FILLER_0_21_317
*823 FILLER_0_21_329
*824 FILLER_0_21_39
*825 FILLER_0_21_51
*826 FILLER_0_21_55
*827 FILLER_0_21_57
*828 FILLER_0_21_69
*829 FILLER_0_21_81
*830 FILLER_0_21_93
*831 FILLER_0_22_109
*832 FILLER_0_22_121
*833 FILLER_0_22_133
*834 FILLER_0_22_139
*835 FILLER_0_22_141
*836 FILLER_0_22_15
*837 FILLER_0_22_153
*838 FILLER_0_22_165
*839 FILLER_0_22_177
*840 FILLER_0_22_189
*841 FILLER_0_22_195
*842 FILLER_0_22_197
*843 FILLER_0_22_209
*844 FILLER_0_22_221
*845 FILLER_0_22_233
*846 FILLER_0_22_245
*847 FILLER_0_22_251
*848 FILLER_0_22_253
*849 FILLER_0_22_265
*850 FILLER_0_22_27
*851 FILLER_0_22_277
*852 FILLER_0_22_289
*853 FILLER_0_22_29
*854 FILLER_0_22_3
*855 FILLER_0_22_301
*856 FILLER_0_22_307
*857 FILLER_0_22_309
*858 FILLER_0_22_321
*859 FILLER_0_22_333
*860 FILLER_0_22_41
*861 FILLER_0_22_53
*862 FILLER_0_22_65
*863 FILLER_0_22_77
*864 FILLER_0_22_83
*865 FILLER_0_22_85
*866 FILLER_0_22_97
*867 FILLER_0_23_101
*868 FILLER_0_23_110
*869 FILLER_0_23_116
*870 FILLER_0_23_128
*871 FILLER_0_23_149
*872 FILLER_0_23_15
*873 FILLER_0_23_161
*874 FILLER_0_23_167
*875 FILLER_0_23_169
*876 FILLER_0_23_181
*877 FILLER_0_23_193
*878 FILLER_0_23_201
*879 FILLER_0_23_205
*880 FILLER_0_23_217
*881 FILLER_0_23_223
*882 FILLER_0_23_225
*883 FILLER_0_23_233
*884 FILLER_0_23_245
*885 FILLER_0_23_257
*886 FILLER_0_23_269
*887 FILLER_0_23_27
*888 FILLER_0_23_277
*889 FILLER_0_23_281
*890 FILLER_0_23_293
*891 FILLER_0_23_3
*892 FILLER_0_23_305
*893 FILLER_0_23_317
*894 FILLER_0_23_329
*895 FILLER_0_23_39
*896 FILLER_0_23_51
*897 FILLER_0_23_55
*898 FILLER_0_23_57
*899 FILLER_0_23_69
*900 FILLER_0_23_81
*901 FILLER_0_23_93
*902 FILLER_0_23_97
*903 FILLER_0_24_128
*904 FILLER_0_24_139
*905 FILLER_0_24_141
*906 FILLER_0_24_145
*907 FILLER_0_24_149
*908 FILLER_0_24_15
*909 FILLER_0_24_167
*910 FILLER_0_24_179
*911 FILLER_0_24_191
*912 FILLER_0_24_195
*913 FILLER_0_24_221
*914 FILLER_0_24_244
*915 FILLER_0_24_253
*916 FILLER_0_24_27
*917 FILLER_0_24_281
*918 FILLER_0_24_29
*919 FILLER_0_24_293
*920 FILLER_0_24_3
*921 FILLER_0_24_305
*922 FILLER_0_24_309
*923 FILLER_0_24_321
*924 FILLER_0_24_333
*925 FILLER_0_24_41
*926 FILLER_0_24_53
*927 FILLER_0_24_61
*928 FILLER_0_24_65
*929 FILLER_0_24_72
*930 FILLER_0_24_85
*931 FILLER_0_25_101
*932 FILLER_0_25_15
*933 FILLER_0_25_178
*934 FILLER_0_25_215
*935 FILLER_0_25_241
*936 FILLER_0_25_257
*937 FILLER_0_25_27
*938 FILLER_0_25_281
*939 FILLER_0_25_3
*940 FILLER_0_25_301
*941 FILLER_0_25_313
*942 FILLER_0_25_325
*943 FILLER_0_25_333
*944 FILLER_0_25_39
*945 FILLER_0_25_51
*946 FILLER_0_25_55
*947 FILLER_0_26_103
*948 FILLER_0_26_108
*949 FILLER_0_26_112
*950 FILLER_0_26_116
*951 FILLER_0_26_134
*952 FILLER_0_26_141
*953 FILLER_0_26_15
*954 FILLER_0_26_166
*955 FILLER_0_26_191
*956 FILLER_0_26_218
*957 FILLER_0_26_247
*958 FILLER_0_26_251
*959 FILLER_0_26_253
*960 FILLER_0_26_27
*961 FILLER_0_26_29
*962 FILLER_0_26_290
*963 FILLER_0_26_3
*964 FILLER_0_26_302
*965 FILLER_0_26_309
*966 FILLER_0_26_321
*967 FILLER_0_26_333
*968 FILLER_0_26_41
*969 FILLER_0_26_53
*970 FILLER_0_26_65
*971 FILLER_0_26_71
*972 FILLER_0_26_75
*973 FILLER_0_26_85
*974 FILLER_0_27_100
*975 FILLER_0_27_136
*976 FILLER_0_27_144
*977 FILLER_0_27_15
*978 FILLER_0_27_172
*979 FILLER_0_27_198
*980 FILLER_0_27_204
*981 FILLER_0_27_238
*982 FILLER_0_27_246
*983 FILLER_0_27_252
*984 FILLER_0_27_258
*985 FILLER_0_27_27
*986 FILLER_0_27_278
*987 FILLER_0_27_297
*988 FILLER_0_27_3
*989 FILLER_0_27_309
*990 FILLER_0_27_321
*991 FILLER_0_27_333
*992 FILLER_0_27_39
*993 FILLER_0_27_47
*994 FILLER_0_27_77
*995 FILLER_0_28_110
*996 FILLER_0_28_138
*997 FILLER_0_28_144
*998 FILLER_0_28_149
*999 FILLER_0_28_15
*1000 FILLER_0_28_163
*1001 FILLER_0_28_192
*1002 FILLER_0_28_197
*1003 FILLER_0_28_209
*1004 FILLER_0_28_238
*1005 FILLER_0_28_257
*1006 FILLER_0_28_267
*1007 FILLER_0_28_27
*1008 FILLER_0_28_276
*1009 FILLER_0_28_288
*1010 FILLER_0_28_29
*1011 FILLER_0_28_3
*1012 FILLER_0_28_300
*1013 FILLER_0_28_309
*1014 FILLER_0_28_321
*1015 FILLER_0_28_333
*1016 FILLER_0_28_41
*1017 FILLER_0_28_65
*1018 FILLER_0_28_83
*1019 FILLER_0_28_85
*1020 FILLER_0_28_99
*1021 FILLER_0_29_15
*1022 FILLER_0_29_156
*1023 FILLER_0_29_192
*1024 FILLER_0_29_196
*1025 FILLER_0_29_249
*1026 FILLER_0_29_27
*1027 FILLER_0_29_297
*1028 FILLER_0_29_3
*1029 FILLER_0_29_309
*1030 FILLER_0_29_321
*1031 FILLER_0_29_333
*1032 FILLER_0_29_39
*1033 FILLER_0_29_47
*1034 FILLER_0_29_62
*1035 FILLER_0_29_72
*1036 FILLER_0_29_76
*1037 FILLER_0_2_109
*1038 FILLER_0_2_121
*1039 FILLER_0_2_133
*1040 FILLER_0_2_139
*1041 FILLER_0_2_141
*1042 FILLER_0_2_15
*1043 FILLER_0_2_153
*1044 FILLER_0_2_165
*1045 FILLER_0_2_177
*1046 FILLER_0_2_189
*1047 FILLER_0_2_195
*1048 FILLER_0_2_197
*1049 FILLER_0_2_209
*1050 FILLER_0_2_221
*1051 FILLER_0_2_233
*1052 FILLER_0_2_245
*1053 FILLER_0_2_251
*1054 FILLER_0_2_253
*1055 FILLER_0_2_265
*1056 FILLER_0_2_27
*1057 FILLER_0_2_277
*1058 FILLER_0_2_289
*1059 FILLER_0_2_29
*1060 FILLER_0_2_3
*1061 FILLER_0_2_301
*1062 FILLER_0_2_307
*1063 FILLER_0_2_309
*1064 FILLER_0_2_321
*1065 FILLER_0_2_333
*1066 FILLER_0_2_41
*1067 FILLER_0_2_53
*1068 FILLER_0_2_65
*1069 FILLER_0_2_77
*1070 FILLER_0_2_83
*1071 FILLER_0_2_85
*1072 FILLER_0_2_97
*1073 FILLER_0_30_120
*1074 FILLER_0_30_138
*1075 FILLER_0_30_141
*1076 FILLER_0_30_15
*1077 FILLER_0_30_158
*1078 FILLER_0_30_166
*1079 FILLER_0_30_188
*1080 FILLER_0_30_197
*1081 FILLER_0_30_209
*1082 FILLER_0_30_228
*1083 FILLER_0_30_238
*1084 FILLER_0_30_242
*1085 FILLER_0_30_269
*1086 FILLER_0_30_27
*1087 FILLER_0_30_29
*1088 FILLER_0_30_291
*1089 FILLER_0_30_3
*1090 FILLER_0_30_303
*1091 FILLER_0_30_307
*1092 FILLER_0_30_309
*1093 FILLER_0_30_321
*1094 FILLER_0_30_333
*1095 FILLER_0_30_41
*1096 FILLER_0_30_53
*1097 FILLER_0_30_59
*1098 FILLER_0_30_85
*1099 FILLER_0_30_95
*1100 FILLER_0_31_108
*1101 FILLER_0_31_120
*1102 FILLER_0_31_132
*1103 FILLER_0_31_144
*1104 FILLER_0_31_15
*1105 FILLER_0_31_156
*1106 FILLER_0_31_169
*1107 FILLER_0_31_191
*1108 FILLER_0_31_197
*1109 FILLER_0_31_201
*1110 FILLER_0_31_213
*1111 FILLER_0_31_240
*1112 FILLER_0_31_252
*1113 FILLER_0_31_258
*1114 FILLER_0_31_266
*1115 FILLER_0_31_27
*1116 FILLER_0_31_278
*1117 FILLER_0_31_281
*1118 FILLER_0_31_293
*1119 FILLER_0_31_3
*1120 FILLER_0_31_305
*1121 FILLER_0_31_317
*1122 FILLER_0_31_329
*1123 FILLER_0_31_39
*1124 FILLER_0_31_47
*1125 FILLER_0_31_55
*1126 FILLER_0_31_62
*1127 FILLER_0_31_70
*1128 FILLER_0_32_125
*1129 FILLER_0_32_137
*1130 FILLER_0_32_141
*1131 FILLER_0_32_145
*1132 FILLER_0_32_15
*1133 FILLER_0_32_151
*1134 FILLER_0_32_159
*1135 FILLER_0_32_167
*1136 FILLER_0_32_177
*1137 FILLER_0_32_181
*1138 FILLER_0_32_193
*1139 FILLER_0_32_197
*1140 FILLER_0_32_203
*1141 FILLER_0_32_220
*1142 FILLER_0_32_224
*1143 FILLER_0_32_229
*1144 FILLER_0_32_241
*1145 FILLER_0_32_253
*1146 FILLER_0_32_265
*1147 FILLER_0_32_27
*1148 FILLER_0_32_277
*1149 FILLER_0_32_289
*1150 FILLER_0_32_29
*1151 FILLER_0_32_3
*1152 FILLER_0_32_301
*1153 FILLER_0_32_307
*1154 FILLER_0_32_309
*1155 FILLER_0_32_321
*1156 FILLER_0_32_333
*1157 FILLER_0_32_41
*1158 FILLER_0_32_65
*1159 FILLER_0_32_73
*1160 FILLER_0_32_85
*1161 FILLER_0_33_116
*1162 FILLER_0_33_126
*1163 FILLER_0_33_138
*1164 FILLER_0_33_15
*1165 FILLER_0_33_177
*1166 FILLER_0_33_191
*1167 FILLER_0_33_199
*1168 FILLER_0_33_220
*1169 FILLER_0_33_225
*1170 FILLER_0_33_238
*1171 FILLER_0_33_265
*1172 FILLER_0_33_27
*1173 FILLER_0_33_274
*1174 FILLER_0_33_281
*1175 FILLER_0_33_293
*1176 FILLER_0_33_3
*1177 FILLER_0_33_305
*1178 FILLER_0_33_317
*1179 FILLER_0_33_329
*1180 FILLER_0_33_39
*1181 FILLER_0_33_45
*1182 FILLER_0_33_57
*1183 FILLER_0_33_65
*1184 FILLER_0_33_75
*1185 FILLER_0_33_87
*1186 FILLER_0_33_91
*1187 FILLER_0_34_102
*1188 FILLER_0_34_110
*1189 FILLER_0_34_118
*1190 FILLER_0_34_130
*1191 FILLER_0_34_138
*1192 FILLER_0_34_141
*1193 FILLER_0_34_145
*1194 FILLER_0_34_15
*1195 FILLER_0_34_182
*1196 FILLER_0_34_190
*1197 FILLER_0_34_220
*1198 FILLER_0_34_242
*1199 FILLER_0_34_250
*1200 FILLER_0_34_253
*1201 FILLER_0_34_27
*1202 FILLER_0_34_283
*1203 FILLER_0_34_29
*1204 FILLER_0_34_295
*1205 FILLER_0_34_3
*1206 FILLER_0_34_307
*1207 FILLER_0_34_309
*1208 FILLER_0_34_321
*1209 FILLER_0_34_333
*1210 FILLER_0_34_41
*1211 FILLER_0_34_45
*1212 FILLER_0_34_82
*1213 FILLER_0_35_116
*1214 FILLER_0_35_128
*1215 FILLER_0_35_136
*1216 FILLER_0_35_15
*1217 FILLER_0_35_153
*1218 FILLER_0_35_176
*1219 FILLER_0_35_182
*1220 FILLER_0_35_186
*1221 FILLER_0_35_218
*1222 FILLER_0_35_257
*1223 FILLER_0_35_27
*1224 FILLER_0_35_274
*1225 FILLER_0_35_281
*1226 FILLER_0_35_293
*1227 FILLER_0_35_3
*1228 FILLER_0_35_305
*1229 FILLER_0_35_317
*1230 FILLER_0_35_329
*1231 FILLER_0_35_39
*1232 FILLER_0_35_51
*1233 FILLER_0_35_55
*1234 FILLER_0_35_57
*1235 FILLER_0_35_93
*1236 FILLER_0_36_122
*1237 FILLER_0_36_129
*1238 FILLER_0_36_136
*1239 FILLER_0_36_141
*1240 FILLER_0_36_146
*1241 FILLER_0_36_15
*1242 FILLER_0_36_176
*1243 FILLER_0_36_184
*1244 FILLER_0_36_191
*1245 FILLER_0_36_195
*1246 FILLER_0_36_203
*1247 FILLER_0_36_215
*1248 FILLER_0_36_253
*1249 FILLER_0_36_257
*1250 FILLER_0_36_263
*1251 FILLER_0_36_27
*1252 FILLER_0_36_275
*1253 FILLER_0_36_287
*1254 FILLER_0_36_29
*1255 FILLER_0_36_299
*1256 FILLER_0_36_3
*1257 FILLER_0_36_307
*1258 FILLER_0_36_309
*1259 FILLER_0_36_321
*1260 FILLER_0_36_333
*1261 FILLER_0_36_41
*1262 FILLER_0_36_53
*1263 FILLER_0_37_111
*1264 FILLER_0_37_15
*1265 FILLER_0_37_163
*1266 FILLER_0_37_167
*1267 FILLER_0_37_172
*1268 FILLER_0_37_208
*1269 FILLER_0_37_220
*1270 FILLER_0_37_225
*1271 FILLER_0_37_243
*1272 FILLER_0_37_259
*1273 FILLER_0_37_27
*1274 FILLER_0_37_276
*1275 FILLER_0_37_281
*1276 FILLER_0_37_293
*1277 FILLER_0_37_3
*1278 FILLER_0_37_305
*1279 FILLER_0_37_317
*1280 FILLER_0_37_329
*1281 FILLER_0_37_39
*1282 FILLER_0_37_51
*1283 FILLER_0_37_55
*1284 FILLER_0_37_57
*1285 FILLER_0_37_69
*1286 FILLER_0_37_92
*1287 FILLER_0_38_10
*1288 FILLER_0_38_102
*1289 FILLER_0_38_111
*1290 FILLER_0_38_116
*1291 FILLER_0_38_128
*1292 FILLER_0_38_134
*1293 FILLER_0_38_14
*1294 FILLER_0_38_144
*1295 FILLER_0_38_151
*1296 FILLER_0_38_158
*1297 FILLER_0_38_162
*1298 FILLER_0_38_166
*1299 FILLER_0_38_169
*1300 FILLER_0_38_174
*1301 FILLER_0_38_178
*1302 FILLER_0_38_18
*1303 FILLER_0_38_182
*1304 FILLER_0_38_186
*1305 FILLER_0_38_193
*1306 FILLER_0_38_200
*1307 FILLER_0_38_213
*1308 FILLER_0_38_22
*1309 FILLER_0_38_221
*1310 FILLER_0_38_225
*1311 FILLER_0_38_234
*1312 FILLER_0_38_246
*1313 FILLER_0_38_253
*1314 FILLER_0_38_261
*1315 FILLER_0_38_265
*1316 FILLER_0_38_277
*1317 FILLER_0_38_281
*1318 FILLER_0_38_293
*1319 FILLER_0_38_305
*1320 FILLER_0_38_309
*1321 FILLER_0_38_32
*1322 FILLER_0_38_321
*1323 FILLER_0_38_333
*1324 FILLER_0_38_38
*1325 FILLER_0_38_42
*1326 FILLER_0_38_46
*1327 FILLER_0_38_50
*1328 FILLER_0_38_54
*1329 FILLER_0_38_57
*1330 FILLER_0_38_6
*1331 FILLER_0_38_62
*1332 FILLER_0_38_66
*1333 FILLER_0_38_70
*1334 FILLER_0_38_74
*1335 FILLER_0_38_78
*1336 FILLER_0_38_88
*1337 FILLER_0_38_94
*1338 FILLER_0_38_98
*1339 FILLER_0_3_105
*1340 FILLER_0_3_111
*1341 FILLER_0_3_113
*1342 FILLER_0_3_125
*1343 FILLER_0_3_137
*1344 FILLER_0_3_149
*1345 FILLER_0_3_15
*1346 FILLER_0_3_161
*1347 FILLER_0_3_167
*1348 FILLER_0_3_169
*1349 FILLER_0_3_181
*1350 FILLER_0_3_193
*1351 FILLER_0_3_205
*1352 FILLER_0_3_217
*1353 FILLER_0_3_223
*1354 FILLER_0_3_225
*1355 FILLER_0_3_237
*1356 FILLER_0_3_249
*1357 FILLER_0_3_261
*1358 FILLER_0_3_27
*1359 FILLER_0_3_273
*1360 FILLER_0_3_279
*1361 FILLER_0_3_281
*1362 FILLER_0_3_293
*1363 FILLER_0_3_3
*1364 FILLER_0_3_305
*1365 FILLER_0_3_317
*1366 FILLER_0_3_329
*1367 FILLER_0_3_39
*1368 FILLER_0_3_51
*1369 FILLER_0_3_55
*1370 FILLER_0_3_57
*1371 FILLER_0_3_69
*1372 FILLER_0_3_81
*1373 FILLER_0_3_93
*1374 FILLER_0_4_109
*1375 FILLER_0_4_121
*1376 FILLER_0_4_133
*1377 FILLER_0_4_139
*1378 FILLER_0_4_141
*1379 FILLER_0_4_15
*1380 FILLER_0_4_153
*1381 FILLER_0_4_165
*1382 FILLER_0_4_177
*1383 FILLER_0_4_189
*1384 FILLER_0_4_195
*1385 FILLER_0_4_197
*1386 FILLER_0_4_209
*1387 FILLER_0_4_221
*1388 FILLER_0_4_233
*1389 FILLER_0_4_245
*1390 FILLER_0_4_251
*1391 FILLER_0_4_253
*1392 FILLER_0_4_265
*1393 FILLER_0_4_27
*1394 FILLER_0_4_277
*1395 FILLER_0_4_289
*1396 FILLER_0_4_29
*1397 FILLER_0_4_3
*1398 FILLER_0_4_301
*1399 FILLER_0_4_307
*1400 FILLER_0_4_309
*1401 FILLER_0_4_321
*1402 FILLER_0_4_333
*1403 FILLER_0_4_41
*1404 FILLER_0_4_53
*1405 FILLER_0_4_65
*1406 FILLER_0_4_77
*1407 FILLER_0_4_83
*1408 FILLER_0_4_85
*1409 FILLER_0_4_97
*1410 FILLER_0_5_105
*1411 FILLER_0_5_111
*1412 FILLER_0_5_113
*1413 FILLER_0_5_125
*1414 FILLER_0_5_137
*1415 FILLER_0_5_149
*1416 FILLER_0_5_15
*1417 FILLER_0_5_161
*1418 FILLER_0_5_167
*1419 FILLER_0_5_169
*1420 FILLER_0_5_181
*1421 FILLER_0_5_193
*1422 FILLER_0_5_205
*1423 FILLER_0_5_217
*1424 FILLER_0_5_223
*1425 FILLER_0_5_225
*1426 FILLER_0_5_237
*1427 FILLER_0_5_249
*1428 FILLER_0_5_261
*1429 FILLER_0_5_27
*1430 FILLER_0_5_273
*1431 FILLER_0_5_279
*1432 FILLER_0_5_281
*1433 FILLER_0_5_293
*1434 FILLER_0_5_3
*1435 FILLER_0_5_305
*1436 FILLER_0_5_317
*1437 FILLER_0_5_329
*1438 FILLER_0_5_39
*1439 FILLER_0_5_51
*1440 FILLER_0_5_55
*1441 FILLER_0_5_57
*1442 FILLER_0_5_69
*1443 FILLER_0_5_81
*1444 FILLER_0_5_93
*1445 FILLER_0_6_109
*1446 FILLER_0_6_121
*1447 FILLER_0_6_133
*1448 FILLER_0_6_139
*1449 FILLER_0_6_141
*1450 FILLER_0_6_15
*1451 FILLER_0_6_153
*1452 FILLER_0_6_165
*1453 FILLER_0_6_177
*1454 FILLER_0_6_189
*1455 FILLER_0_6_195
*1456 FILLER_0_6_197
*1457 FILLER_0_6_209
*1458 FILLER_0_6_221
*1459 FILLER_0_6_233
*1460 FILLER_0_6_245
*1461 FILLER_0_6_251
*1462 FILLER_0_6_253
*1463 FILLER_0_6_265
*1464 FILLER_0_6_27
*1465 FILLER_0_6_277
*1466 FILLER_0_6_289
*1467 FILLER_0_6_29
*1468 FILLER_0_6_3
*1469 FILLER_0_6_301
*1470 FILLER_0_6_307
*1471 FILLER_0_6_309
*1472 FILLER_0_6_321
*1473 FILLER_0_6_333
*1474 FILLER_0_6_41
*1475 FILLER_0_6_53
*1476 FILLER_0_6_65
*1477 FILLER_0_6_77
*1478 FILLER_0_6_83
*1479 FILLER_0_6_85
*1480 FILLER_0_6_97
*1481 FILLER_0_7_105
*1482 FILLER_0_7_111
*1483 FILLER_0_7_113
*1484 FILLER_0_7_125
*1485 FILLER_0_7_137
*1486 FILLER_0_7_149
*1487 FILLER_0_7_15
*1488 FILLER_0_7_161
*1489 FILLER_0_7_167
*1490 FILLER_0_7_169
*1491 FILLER_0_7_181
*1492 FILLER_0_7_193
*1493 FILLER_0_7_205
*1494 FILLER_0_7_217
*1495 FILLER_0_7_223
*1496 FILLER_0_7_225
*1497 FILLER_0_7_237
*1498 FILLER_0_7_249
*1499 FILLER_0_7_261
*1500 FILLER_0_7_27
*1501 FILLER_0_7_273
*1502 FILLER_0_7_279
*1503 FILLER_0_7_281
*1504 FILLER_0_7_293
*1505 FILLER_0_7_3
*1506 FILLER_0_7_305
*1507 FILLER_0_7_317
*1508 FILLER_0_7_329
*1509 FILLER_0_7_39
*1510 FILLER_0_7_51
*1511 FILLER_0_7_55
*1512 FILLER_0_7_57
*1513 FILLER_0_7_69
*1514 FILLER_0_7_81
*1515 FILLER_0_7_93
*1516 FILLER_0_8_109
*1517 FILLER_0_8_121
*1518 FILLER_0_8_133
*1519 FILLER_0_8_139
*1520 FILLER_0_8_141
*1521 FILLER_0_8_15
*1522 FILLER_0_8_153
*1523 FILLER_0_8_165
*1524 FILLER_0_8_177
*1525 FILLER_0_8_189
*1526 FILLER_0_8_195
*1527 FILLER_0_8_197
*1528 FILLER_0_8_209
*1529 FILLER_0_8_221
*1530 FILLER_0_8_233
*1531 FILLER_0_8_245
*1532 FILLER_0_8_251
*1533 FILLER_0_8_253
*1534 FILLER_0_8_265