*SPEF "ieee 1481-1999"
*DESIGN "tt_um_wokwi_394640918790880257"
*DATE "16:30:57 Friday April 12, 2024"
*VENDOR "The OpenROAD Project"
*PROGRAM "OpenROAD"
*VERSION "0889970d1790a2617e69f253221b8bd7626e51dc"
*DESIGN_FLOW "NAME_SCOPE LOCAL" "PIN_CAP NONE"
*DIVIDER /
*DELIMITER :
*BUS_DELIMITER []
*T_UNIT 1 NS
*C_UNIT 1 PF
*R_UNIT 1 OHM
*L_UNIT 1 HENRY

*NAME_MAP
*3 clk
*4 ena
*5 rst_n
*6 ui_in[0]
*7 ui_in[1]
*8 ui_in[2]
*9 ui_in[3]
*10 ui_in[4]
*11 ui_in[5]
*12 ui_in[6]
*13 ui_in[7]
*14 uio_in[0]
*15 uio_in[1]
*16 uio_in[2]
*17 uio_in[3]
*18 uio_in[4]
*19 uio_in[5]
*20 uio_in[6]
*21 uio_in[7]
*22 net15
*23 net16
*24 net17
*25 net18
*26 net19
*27 net20
*28 net21
*29 net22
*30 net23
*31 net24
*32 net25
*33 net26
*34 net27
*35 net28
*36 net29
*37 net30
*38 uo_out[0]
*39 uo_out[1]
*40 uo_out[2]
*41 uo_out[3]
*42 net31
*43 uo_out[5]
*44 uo_out[6]
*45 uo_out[7]
*46 _000_
*47 _001_
*48 _002_
*49 _003_
*50 _004_
*51 _005_
*52 _006_
*53 _007_
*54 _008_
*55 _009_
*56 _010_
*57 _011_
*58 _012_
*59 _013_
*60 _015_
*61 _016_
*62 _017_
*63 _018_
*64 _019_
*65 _020_
*66 _021_
*67 _022_
*68 _023_
*69 _024_
*70 _025_
*71 _026_
*72 _027_
*73 _028_
*74 _029_
*75 _030_
*76 _031_
*77 _032_
*78 _033_
*79 _034_
*80 _035_
*81 _036_
*82 _037_
*83 _038_
*84 _039_
*85 _040_
*86 _041_
*87 _042_
*88 _043_
*89 _044_
*90 _045_
*91 _046_
*92 _047_
*93 _048_
*94 _049_
*95 _050_
*96 _051_
*97 _052_
*98 _053_
*99 _054_
*100 _055_
*101 _056_
*102 _057_
*103 _058_
*104 _059_
*105 _060_
*106 _061_
*107 _062_
*108 _063_
*109 _064_
*110 _065_
*111 _066_
*112 _067_
*113 _068_
*114 _069_
*115 _070_
*116 _071_
*117 _072_
*118 _073_
*119 _074_
*120 _075_
*121 _076_
*122 _077_
*123 _078_
*124 _079_
*125 _080_
*126 _081_
*127 _082_
*128 _083_
*129 _084_
*130 _085_
*131 _086_
*132 _087_
*133 _088_
*134 _089_
*135 _090_
*136 _091_
*137 _092_
*138 _093_
*139 _094_
*140 _095_
*141 _096_
*142 _097_
*143 _098_
*144 _099_
*145 _100_
*146 _101_
*147 _102_
*148 _103_
*149 _104_
*150 _105_
*151 _106_
*152 _107_
*153 _108_
*154 _109_
*155 _110_
*156 _111_
*157 _112_
*158 _113_
*159 _114_
*160 _115_
*161 _116_
*162 _117_
*163 _118_
*164 _119_
*165 _120_
*166 _121_
*167 _122_
*168 _123_
*169 _124_
*170 _125_
*171 _126_
*172 _127_
*173 _128_
*174 _129_
*175 _130_
*176 _131_
*177 _132_
*178 _133_
*179 _134_
*180 _135_
*181 _136_
*182 _137_
*183 _138_
*184 _139_
*185 _140_
*186 _141_
*187 _142_
*188 _143_
*189 _144_
*190 _147_
*191 _148_
*192 _150_
*193 _151_
*194 _153_
*195 _154_
*196 _155_
*197 _156_
*198 _157_
*199 _158_
*200 _159_
*201 _160_
*202 _161_
*203 _162_
*204 _163_
*205 _164_
*206 _165_
*207 _166_
*208 _167_
*209 _168_
*210 _169_
*211 _170_
*212 _171_
*213 _172_
*214 _173_
*215 _174_
*216 _175_
*217 _176_
*218 _177_
*219 _178_
*220 _179_
*221 _180_
*222 _181_
*223 _182_
*224 _183_
*225 _184_
*226 _185_
*227 _186_
*228 _187_
*229 _188_
*230 _189_
*231 _190_
*232 _191_
*233 _192_
*234 _193_
*235 _194_
*236 _195_
*237 _196_
*238 _197_
*239 _198_
*240 _199_
*241 _200_
*242 _201_
*243 _202_
*244 _203_
*245 _204_
*246 _205_
*247 _206_
*248 _207_
*249 _208_
*250 _209_
*251 _210_
*252 _211_
*253 _212_
*254 _213_
*255 _214_
*256 _215_
*257 _216_
*258 _217_
*259 _218_
*260 _219_
*261 _220_
*262 _221_
*263 _222_
*264 _223_
*265 _224_
*266 _225_
*267 _226_
*268 _227_
*269 _228_
*270 _229_
*271 _230_
*272 _231_
*273 _232_
*274 _233_
*275 _234_
*276 _235_
*277 _236_
*278 _237_
*279 _238_
*280 _239_
*281 _240_
*282 _241_
*283 _242_
*284 _243_
*285 _244_
*286 _245_
*287 _246_
*288 _247_
*289 _248_
*290 _249_
*291 _250_
*292 _251_
*293 _252_
*294 _253_
*295 _254_
*296 _255_
*297 _256_
*298 _257_
*299 _258_
*300 _259_
*301 _260_
*302 _261_
*303 _262_
*304 _263_
*305 _264_
*306 _265_
*307 _266_
*308 _267_
*309 _268_
*310 _269_
*311 _270_
*312 _271_
*313 _272_
*314 _273_
*315 _274_
*316 _275_
*317 _276_
*318 _277_
*319 _278_
*320 _279_
*321 _280_
*322 _281_
*323 _282_
*324 _283_
*325 _284_
*326 _285_
*327 _286_
*328 _287_
*329 _288_
*330 _289_
*331 _290_
*332 _291_
*333 _292_
*334 _293_
*335 _294_
*336 _295_
*337 _296_
*338 _297_
*339 _298_
*340 _299_
*341 _300_
*342 _301_
*343 _302_
*344 _303_
*345 _304_
*346 _305_
*347 _306_
*348 _307_
*349 _308_
*350 _309_
*351 _310_
*352 _311_
*353 _312_
*354 _313_
*355 _314_
*356 _315_
*357 _316_
*358 _317_
*359 _318_
*360 _319_
*361 _320_
*362 _321_
*363 _322_
*364 _323_
*365 _324_
*366 _325_
*367 _326_
*368 _327_
*369 _328_
*370 _329_
*371 and2\.a
*372 and3\.a
*373 and3\.b
*374 and32\.a
*375 and32\.out
*376 and33\.a
*377 and33\.out
*378 and37\.a
*379 and37\.out
*380 and44\.b
*381 and48\.a
*382 and51\.b
*383 clknet_0_clk
*384 clknet_1_0__leaf_clk
*385 clknet_1_1__leaf_clk
*386 flop1\.q
*387 flop10\.clk
*388 flop10\.q
*389 flop11\.q
*390 flop12\.q
*391 flop13\.q
*392 flop14\.q
*393 flop15\.clk
*394 flop15\.q
*395 flop16\.q
*396 flop17\.q
*397 flop18\.q
*398 flop19\.q
*399 flop2\.d
*400 flop20\.q
*401 flop21\.q
*402 flop22\.q
*403 flop23\.d
*404 flop23\.q
*405 flop24\.d
*406 flop24\.q
*407 flop25\.d
*408 flop25\.q
*409 flop26\.q
*410 flop27\.q
*411 flop28\.q
*412 flop29\.q
*413 flop30\.q
*414 flop31\.q
*415 flop32\.q
*416 flop33\.q
*417 flop34\.q
*418 flop35\.q
*419 flop36\.q
*420 flop37\.q
*421 flop38\.q
*422 flop39\.q
*423 flop40\.q
*424 flop41\.q
*425 flop42\.q
*426 flop43\.q
*427 flop44\.q
*428 flop45\.q
*429 flop46\.q
*430 flop47\.q
*431 flop48\.q
*432 flop49\.q
*433 flop50\.q
*434 flop51\.q
*435 flop52\.q
*436 flop53\.q
*437 flop54\.q
*438 flop55\.q
*439 flop56\.q
*440 flop57\.q
*441 flop58\.q
*442 flop59\.q
*443 flop60\.q
*444 flop61\.q
*445 flop62\.q
*446 flop63\.q
*447 flop64\.q
*448 flop65\.q
*449 flop66\.q
*450 flop67\.q
*451 flop68\.q
*452 flop69\.q
*453 flop70\.q
*454 net1
*455 net10
*456 net11
*457 net12
*458 net13
*459 net14
*460 net2
*461 net3
*462 net32
*463 net33
*464 net34
*465 net35
*466 net36
*467 net37
*468 net38
*469 net39
*470 net4
*471 net40
*472 net41
*473 net42
*474 net43
*475 net5
*476 net6
*477 net7
*478 net8
*479 net9
*480 FILLER_0_0_109
*481 FILLER_0_0_113
*482 FILLER_0_0_125
*483 FILLER_0_0_137
*484 FILLER_0_0_141
*485 FILLER_0_0_15
*486 FILLER_0_0_153
*487 FILLER_0_0_165
*488 FILLER_0_0_169
*489 FILLER_0_0_181
*490 FILLER_0_0_193
*491 FILLER_0_0_197
*492 FILLER_0_0_209
*493 FILLER_0_0_221
*494 FILLER_0_0_225
*495 FILLER_0_0_237
*496 FILLER_0_0_249
*497 FILLER_0_0_253
*498 FILLER_0_0_265
*499 FILLER_0_0_27
*500 FILLER_0_0_277
*501 FILLER_0_0_281
*502 FILLER_0_0_29
*503 FILLER_0_0_293
*504 FILLER_0_0_3
*505 FILLER_0_0_305
*506 FILLER_0_0_309
*507 FILLER_0_0_321
*508 FILLER_0_0_333
*509 FILLER_0_0_41
*510 FILLER_0_0_53
*511 FILLER_0_0_57
*512 FILLER_0_0_69
*513 FILLER_0_0_81
*514 FILLER_0_0_85
*515 FILLER_0_0_97
*516 FILLER_0_10_109
*517 FILLER_0_10_121
*518 FILLER_0_10_133
*519 FILLER_0_10_139
*520 FILLER_0_10_141
*521 FILLER_0_10_15
*522 FILLER_0_10_153
*523 FILLER_0_10_165
*524 FILLER_0_10_177
*525 FILLER_0_10_189
*526 FILLER_0_10_195
*527 FILLER_0_10_197
*528 FILLER_0_10_209
*529 FILLER_0_10_221
*530 FILLER_0_10_233
*531 FILLER_0_10_245
*532 FILLER_0_10_251
*533 FILLER_0_10_253
*534 FILLER_0_10_265
*535 FILLER_0_10_27
*536 FILLER_0_10_277
*537 FILLER_0_10_289
*538 FILLER_0_10_29
*539 FILLER_0_10_3
*540 FILLER_0_10_301
*541 FILLER_0_10_307
*542 FILLER_0_10_309
*543 FILLER_0_10_321
*544 FILLER_0_10_333
*545 FILLER_0_10_41
*546 FILLER_0_10_53
*547 FILLER_0_10_65
*548 FILLER_0_10_77
*549 FILLER_0_10_83
*550 FILLER_0_10_85
*551 FILLER_0_10_97
*552 FILLER_0_11_105
*553 FILLER_0_11_111
*554 FILLER_0_11_113
*555 FILLER_0_11_125
*556 FILLER_0_11_137
*557 FILLER_0_11_149
*558 FILLER_0_11_15
*559 FILLER_0_11_161
*560 FILLER_0_11_167
*561 FILLER_0_11_169
*562 FILLER_0_11_181
*563 FILLER_0_11_193
*564 FILLER_0_11_205
*565 FILLER_0_11_217
*566 FILLER_0_11_223
*567 FILLER_0_11_225
*568 FILLER_0_11_237
*569 FILLER_0_11_249
*570 FILLER_0_11_261
*571 FILLER_0_11_27
*572 FILLER_0_11_273
*573 FILLER_0_11_279
*574 FILLER_0_11_281
*575 FILLER_0_11_293
*576 FILLER_0_11_3
*577 FILLER_0_11_305
*578 FILLER_0_11_317
*579 FILLER_0_11_329
*580 FILLER_0_11_39
*581 FILLER_0_11_51
*582 FILLER_0_11_55
*583 FILLER_0_11_57
*584 FILLER_0_11_69
*585 FILLER_0_11_81
*586 FILLER_0_11_93
*587 FILLER_0_12_109
*588 FILLER_0_12_121
*589 FILLER_0_12_133
*590 FILLER_0_12_139
*591 FILLER_0_12_141
*592 FILLER_0_12_15
*593 FILLER_0_12_153
*594 FILLER_0_12_165
*595 FILLER_0_12_177
*596 FILLER_0_12_189
*597 FILLER_0_12_195
*598 FILLER_0_12_197
*599 FILLER_0_12_209
*600 FILLER_0_12_221
*601 FILLER_0_12_233
*602 FILLER_0_12_245
*603 FILLER_0_12_251
*604 FILLER_0_12_253
*605 FILLER_0_12_265
*606 FILLER_0_12_27
*607 FILLER_0_12_277
*608 FILLER_0_12_289
*609 FILLER_0_12_29
*610 FILLER_0_12_3
*611 FILLER_0_12_301
*612 FILLER_0_12_307
*613 FILLER_0_12_309
*614 FILLER_0_12_321
*615 FILLER_0_12_333
*616 FILLER_0_12_41
*617 FILLER_0_12_53
*618 FILLER_0_12_65
*619 FILLER_0_12_77
*620 FILLER_0_12_83
*621 FILLER_0_12_85
*622 FILLER_0_12_97
*623 FILLER_0_13_105
*624 FILLER_0_13_111
*625 FILLER_0_13_113
*626 FILLER_0_13_125
*627 FILLER_0_13_137
*628 FILLER_0_13_149
*629 FILLER_0_13_15
*630 FILLER_0_13_161
*631 FILLER_0_13_167
*632 FILLER_0_13_169
*633 FILLER_0_13_181
*634 FILLER_0_13_193
*635 FILLER_0_13_205
*636 FILLER_0_13_217
*637 FILLER_0_13_223
*638 FILLER_0_13_225
*639 FILLER_0_13_237
*640 FILLER_0_13_249
*641 FILLER_0_13_261
*642 FILLER_0_13_27
*643 FILLER_0_13_273
*644 FILLER_0_13_279
*645 FILLER_0_13_281
*646 FILLER_0_13_293
*647 FILLER_0_13_3
*648 FILLER_0_13_305
*649 FILLER_0_13_317
*650 FILLER_0_13_329
*651 FILLER_0_13_39
*652 FILLER_0_13_51
*653 FILLER_0_13_55
*654 FILLER_0_13_57
*655 FILLER_0_13_69
*656 FILLER_0_13_81
*657 FILLER_0_13_93
*658 FILLER_0_14_109
*659 FILLER_0_14_121
*660 FILLER_0_14_133
*661 FILLER_0_14_139
*662 FILLER_0_14_141
*663 FILLER_0_14_15
*664 FILLER_0_14_153
*665 FILLER_0_14_165
*666 FILLER_0_14_177
*667 FILLER_0_14_189
*668 FILLER_0_14_195
*669 FILLER_0_14_197
*670 FILLER_0_14_209
*671 FILLER_0_14_221
*672 FILLER_0_14_233
*673 FILLER_0_14_245
*674 FILLER_0_14_251
*675 FILLER_0_14_253
*676 FILLER_0_14_265
*677 FILLER_0_14_27
*678 FILLER_0_14_277
*679 FILLER_0_14_289
*680 FILLER_0_14_29
*681 FILLER_0_14_3
*682 FILLER_0_14_301
*683 FILLER_0_14_307
*684 FILLER_0_14_309
*685 FILLER_0_14_321
*686 FILLER_0_14_333
*687 FILLER_0_14_41
*688 FILLER_0_14_53
*689 FILLER_0_14_65
*690 FILLER_0_14_77
*691 FILLER_0_14_83
*692 FILLER_0_14_85
*693 FILLER_0_14_97
*694 FILLER_0_15_105
*695 FILLER_0_15_111
*696 FILLER_0_15_113
*697 FILLER_0_15_125
*698 FILLER_0_15_137
*699 FILLER_0_15_149
*700 FILLER_0_15_15
*701 FILLER_0_15_161
*702 FILLER_0_15_167
*703 FILLER_0_15_169
*704 FILLER_0_15_181
*705 FILLER_0_15_193
*706 FILLER_0_15_205
*707 FILLER_0_15_217
*708 FILLER_0_15_223
*709 FILLER_0_15_225
*710 FILLER_0_15_237
*711 FILLER_0_15_249
*712 FILLER_0_15_261
*713 FILLER_0_15_27
*714 FILLER_0_15_273
*715 FILLER_0_15_279
*716 FILLER_0_15_281
*717 FILLER_0_15_293
*718 FILLER_0_15_3
*719 FILLER_0_15_305
*720 FILLER_0_15_317
*721 FILLER_0_15_329
*722 FILLER_0_15_39
*723 FILLER_0_15_51
*724 FILLER_0_15_55
*725 FILLER_0_15_57
*726 FILLER_0_15_69
*727 FILLER_0_15_81
*728 FILLER_0_15_93
*729 FILLER_0_16_109
*730 FILLER_0_16_121
*731 FILLER_0_16_133
*732 FILLER_0_16_139
*733 FILLER_0_16_141
*734 FILLER_0_16_15
*735 FILLER_0_16_152
*736 FILLER_0_16_164
*737 FILLER_0_16_176
*738 FILLER_0_16_188
*739 FILLER_0_16_197
*740 FILLER_0_16_209
*741 FILLER_0_16_221
*742 FILLER_0_16_232
*743 FILLER_0_16_244
*744 FILLER_0_16_253
*745 FILLER_0_16_27
*746 FILLER_0_16_283
*747 FILLER_0_16_29
*748 FILLER_0_16_295
*749 FILLER_0_16_3
*750 FILLER_0_16_307
*751 FILLER_0_16_309
*752 FILLER_0_16_321
*753 FILLER_0_16_333
*754 FILLER_0_16_41
*755 FILLER_0_16_53
*756 FILLER_0_16_65
*757 FILLER_0_16_77
*758 FILLER_0_16_83
*759 FILLER_0_16_85
*760 FILLER_0_16_97
*761 FILLER_0_17_105
*762 FILLER_0_17_111
*763 FILLER_0_17_113
*764 FILLER_0_17_125
*765 FILLER_0_17_137
*766 FILLER_0_17_15
*767 FILLER_0_17_167
*768 FILLER_0_17_169
*769 FILLER_0_17_177
*770 FILLER_0_17_182
*771 FILLER_0_17_186
*772 FILLER_0_17_215
*773 FILLER_0_17_223
*774 FILLER_0_17_253
*775 FILLER_0_17_258
*776 FILLER_0_17_267
*777 FILLER_0_17_27
*778 FILLER_0_17_279
*779 FILLER_0_17_281
*780 FILLER_0_17_293
*781 FILLER_0_17_3
*782 FILLER_0_17_305
*783 FILLER_0_17_317
*784 FILLER_0_17_329
*785 FILLER_0_17_39
*786 FILLER_0_17_51
*787 FILLER_0_17_55
*788 FILLER_0_17_57
*789 FILLER_0_17_69
*790 FILLER_0_17_81
*791 FILLER_0_17_93
*792 FILLER_0_18_109
*793 FILLER_0_18_141
*794 FILLER_0_18_146
*795 FILLER_0_18_15
*796 FILLER_0_18_152
*797 FILLER_0_18_161
*798 FILLER_0_18_167
*799 FILLER_0_18_203
*800 FILLER_0_18_209
*801 FILLER_0_18_221
*802 FILLER_0_18_233
*803 FILLER_0_18_237
*804 FILLER_0_18_241
*805 FILLER_0_18_249
*806 FILLER_0_18_27
*807 FILLER_0_18_284
*808 FILLER_0_18_29
*809 FILLER_0_18_296
*810 FILLER_0_18_3
*811 FILLER_0_18_300
*812 FILLER_0_18_304
*813 FILLER_0_18_309
*814 FILLER_0_18_321
*815 FILLER_0_18_333
*816 FILLER_0_18_41
*817 FILLER_0_18_53
*818 FILLER_0_18_65
*819 FILLER_0_18_77
*820 FILLER_0_18_83
*821 FILLER_0_18_85
*822 FILLER_0_18_97
*823 FILLER_0_19_108
*824 FILLER_0_19_116
*825 FILLER_0_19_128
*826 FILLER_0_19_15
*827 FILLER_0_19_163
*828 FILLER_0_19_169
*829 FILLER_0_19_181
*830 FILLER_0_19_193
*831 FILLER_0_19_205
*832 FILLER_0_19_219
*833 FILLER_0_19_253
*834 FILLER_0_19_261
*835 FILLER_0_19_265
*836 FILLER_0_19_269
*837 FILLER_0_19_27
*838 FILLER_0_19_273
*839 FILLER_0_19_279
*840 FILLER_0_19_284
*841 FILLER_0_19_292
*842 FILLER_0_19_3
*843 FILLER_0_19_324
*844 FILLER_0_19_332
*845 FILLER_0_19_39
*846 FILLER_0_19_51
*847 FILLER_0_19_55
*848 FILLER_0_19_57
*849 FILLER_0_19_69
*850 FILLER_0_19_81
*851 FILLER_0_19_93
*852 FILLER_0_1_105
*853 FILLER_0_1_111
*854 FILLER_0_1_113
*855 FILLER_0_1_125
*856 FILLER_0_1_137
*857 FILLER_0_1_149
*858 FILLER_0_1_15
*859 FILLER_0_1_161
*860 FILLER_0_1_167
*861 FILLER_0_1_169
*862 FILLER_0_1_181
*863 FILLER_0_1_193
*864 FILLER_0_1_205
*865 FILLER_0_1_217
*866 FILLER_0_1_223
*867 FILLER_0_1_225
*868 FILLER_0_1_237
*869 FILLER_0_1_249
*870 FILLER_0_1_261
*871 FILLER_0_1_27
*872 FILLER_0_1_273
*873 FILLER_0_1_279
*874 FILLER_0_1_281
*875 FILLER_0_1_293
*876 FILLER_0_1_3
*877 FILLER_0_1_305
*878 FILLER_0_1_317
*879 FILLER_0_1_329
*880 FILLER_0_1_39
*881 FILLER_0_1_51
*882 FILLER_0_1_55
*883 FILLER_0_1_57
*884 FILLER_0_1_69
*885 FILLER_0_1_81
*886 FILLER_0_1_93
*887 FILLER_0_20_126
*888 FILLER_0_20_138
*889 FILLER_0_20_141
*890 FILLER_0_20_145
*891 FILLER_0_20_15
*892 FILLER_0_20_181
*893 FILLER_0_20_187
*894 FILLER_0_20_191
*895 FILLER_0_20_195
*896 FILLER_0_20_197
*897 FILLER_0_20_234
*898 FILLER_0_20_240
*899 FILLER_0_20_253
*900 FILLER_0_20_268
*901 FILLER_0_20_27
*902 FILLER_0_20_29
*903 FILLER_0_20_3
*904 FILLER_0_20_304
*905 FILLER_0_20_309
*906 FILLER_0_20_314
*907 FILLER_0_20_327
*908 FILLER_0_20_41
*909 FILLER_0_20_53
*910 FILLER_0_20_65
*911 FILLER_0_20_77
*912 FILLER_0_20_83
*913 FILLER_0_20_85
*914 FILLER_0_20_93
*915 FILLER_0_21_104
*916 FILLER_0_21_109
*917 FILLER_0_21_113
*918 FILLER_0_21_125
*919 FILLER_0_21_137
*920 FILLER_0_21_149
*921 FILLER_0_21_15
*922 FILLER_0_21_153
*923 FILLER_0_21_161
*924 FILLER_0_21_169
*925 FILLER_0_21_179
*926 FILLER_0_21_187
*927 FILLER_0_21_196
*928 FILLER_0_21_200
*929 FILLER_0_21_204
*930 FILLER_0_21_213
*931 FILLER_0_21_221
*932 FILLER_0_21_231
*933 FILLER_0_21_27
*934 FILLER_0_21_276
*935 FILLER_0_21_281
*936 FILLER_0_21_293
*937 FILLER_0_21_3
*938 FILLER_0_21_329
*939 FILLER_0_21_39
*940 FILLER_0_21_51
*941 FILLER_0_21_55
*942 FILLER_0_21_57
*943 FILLER_0_21_69
*944 FILLER_0_21_81
*945 FILLER_0_21_93
*946 FILLER_0_22_120
*947 FILLER_0_22_133
*948 FILLER_0_22_139
*949 FILLER_0_22_141
*950 FILLER_0_22_15
*951 FILLER_0_22_153
*952 FILLER_0_22_161
*953 FILLER_0_22_174
*954 FILLER_0_22_182
*955 FILLER_0_22_191
*956 FILLER_0_22_195
*957 FILLER_0_22_225
*958 FILLER_0_22_233
*959 FILLER_0_22_241
*960 FILLER_0_22_249
*961 FILLER_0_22_263
*962 FILLER_0_22_27
*963 FILLER_0_22_274
*964 FILLER_0_22_286
*965 FILLER_0_22_29
*966 FILLER_0_22_294
*967 FILLER_0_22_3
*968 FILLER_0_22_303
*969 FILLER_0_22_307
*970 FILLER_0_22_309
*971 FILLER_0_22_317
*972 FILLER_0_22_324
*973 FILLER_0_22_332
*974 FILLER_0_22_41
*975 FILLER_0_22_53
*976 FILLER_0_22_65
*977 FILLER_0_22_77
*978 FILLER_0_22_83
*979 FILLER_0_22_85
*980 FILLER_0_22_91
*981 FILLER_0_23_104
*982 FILLER_0_23_113
*983 FILLER_0_23_121
*984 FILLER_0_23_131
*985 FILLER_0_23_143
*986 FILLER_0_23_148
*987 FILLER_0_23_15
*988 FILLER_0_23_152
*989 FILLER_0_23_156
*990 FILLER_0_23_169
*991 FILLER_0_23_173
*992 FILLER_0_23_182
*993 FILLER_0_23_190
*994 FILLER_0_23_202
*995 FILLER_0_23_214
*996 FILLER_0_23_222
*997 FILLER_0_23_225
*998 FILLER_0_23_237
*999 FILLER_0_23_249
*1000 FILLER_0_23_261
*1001 FILLER_0_23_27
*1002 FILLER_0_23_3
*1003 FILLER_0_23_312
*1004 FILLER_0_23_324
*1005 FILLER_0_23_332
*1006 FILLER_0_23_39
*1007 FILLER_0_23_51
*1008 FILLER_0_23_55
*1009 FILLER_0_23_57
*1010 FILLER_0_23_69
*1011 FILLER_0_23_75
*1012 FILLER_0_24_100
*1013 FILLER_0_24_137
*1014 FILLER_0_24_15
*1015 FILLER_0_24_169
*1016 FILLER_0_24_179
*1017 FILLER_0_24_183
*1018 FILLER_0_24_195
*1019 FILLER_0_24_202
*1020 FILLER_0_24_222
*1021 FILLER_0_24_234
*1022 FILLER_0_24_241
*1023 FILLER_0_24_253
*1024 FILLER_0_24_261
*1025 FILLER_0_24_27
*1026 FILLER_0_24_29
*1027 FILLER_0_24_294
*1028 FILLER_0_24_3
*1029 FILLER_0_24_306
*1030 FILLER_0_24_309
*1031 FILLER_0_24_313
*1032 FILLER_0_24_317
*1033 FILLER_0_24_332
*1034 FILLER_0_24_41
*1035 FILLER_0_24_53
*1036 FILLER_0_24_65
*1037 FILLER_0_24_77
*1038 FILLER_0_24_83
*1039 FILLER_0_24_85
*1040 FILLER_0_24_89
*1041 FILLER_0_24_93
*1042 FILLER_0_25_108
*1043 FILLER_0_25_113
*1044 FILLER_0_25_125
*1045 FILLER_0_25_133
*1046 FILLER_0_25_141
*1047 FILLER_0_25_15
*1048 FILLER_0_25_156
*1049 FILLER_0_25_162
*1050 FILLER_0_25_225
*1051 FILLER_0_25_231
*1052 FILLER_0_25_263
*1053 FILLER_0_25_269
*1054 FILLER_0_25_27
*1055 FILLER_0_25_278
*1056 FILLER_0_25_281
*1057 FILLER_0_25_286
*1058 FILLER_0_25_3
*1059 FILLER_0_25_328
*1060 FILLER_0_25_334
*1061 FILLER_0_25_39
*1062 FILLER_0_25_51
*1063 FILLER_0_25_55
*1064 FILLER_0_25_57
*1065 FILLER_0_25_69
*1066 FILLER_0_25_73
*1067 FILLER_0_26_123
*1068 FILLER_0_26_132
*1069 FILLER_0_26_15
*1070 FILLER_0_26_169
*1071 FILLER_0_26_183
*1072 FILLER_0_26_195
*1073 FILLER_0_26_204
*1074 FILLER_0_26_225
*1075 FILLER_0_26_237
*1076 FILLER_0_26_246
*1077 FILLER_0_26_256
*1078 FILLER_0_26_263
*1079 FILLER_0_26_27
*1080 FILLER_0_26_275
*1081 FILLER_0_26_29
*1082 FILLER_0_26_3
*1083 FILLER_0_26_313
*1084 FILLER_0_26_317
*1085 FILLER_0_26_324
*1086 FILLER_0_26_332
*1087 FILLER_0_26_41
*1088 FILLER_0_26_53
*1089 FILLER_0_26_65
*1090 FILLER_0_26_77
*1091 FILLER_0_26_83
*1092 FILLER_0_26_88
*1093 FILLER_0_27_107
*1094 FILLER_0_27_111
*1095 FILLER_0_27_113
*1096 FILLER_0_27_125
*1097 FILLER_0_27_137
*1098 FILLER_0_27_149
*1099 FILLER_0_27_15
*1100 FILLER_0_27_157
*1101 FILLER_0_27_162
*1102 FILLER_0_27_172
*1103 FILLER_0_27_184
*1104 FILLER_0_27_196
*1105 FILLER_0_27_204
*1106 FILLER_0_27_223
*1107 FILLER_0_27_225
*1108 FILLER_0_27_259
*1109 FILLER_0_27_27
*1110 FILLER_0_27_271
*1111 FILLER_0_27_279
*1112 FILLER_0_27_3
*1113 FILLER_0_27_309
*1114 FILLER_0_27_321
*1115 FILLER_0_27_333
*1116 FILLER_0_27_39
*1117 FILLER_0_27_51
*1118 FILLER_0_27_55
*1119 FILLER_0_27_57
*1120 FILLER_0_27_65
*1121 FILLER_0_27_95
*1122 FILLER_0_28_106
*1123 FILLER_0_28_141
*1124 FILLER_0_28_149
*1125 FILLER_0_28_15
*1126 FILLER_0_28_178
*1127 FILLER_0_28_234
*1128 FILLER_0_28_240
*1129 FILLER_0_28_244
*1130 FILLER_0_28_248
*1131 FILLER_0_28_253
*1132 FILLER_0_28_27
*1133 FILLER_0_28_29
*1134 FILLER_0_28_293
*1135 FILLER_0_28_298
*1136 FILLER_0_28_3
*1137 FILLER_0_28_306
*1138 FILLER_0_28_316
*1139 FILLER_0_28_325
*1140 FILLER_0_28_333
*1141 FILLER_0_28_41
*1142 FILLER_0_28_53
*1143 FILLER_0_28_65
*1144 FILLER_0_28_77
*1145 FILLER_0_28_81
*1146 FILLER_0_28_85
*1147 FILLER_0_28_94
*1148 FILLER_0_29_103
*1149 FILLER_0_29_111
*1150 FILLER_0_29_113
*1151 FILLER_0_29_119
*1152 FILLER_0_29_123
*1153 FILLER_0_29_131
*1154 FILLER_0_29_137
*1155 FILLER_0_29_15
*1156 FILLER_0_29_172
*1157 FILLER_0_29_180
*1158 FILLER_0_29_184
*1159 FILLER_0_29_193
*1160 FILLER_0_29_222
*1161 FILLER_0_29_225
*1162 FILLER_0_29_254
*1163 FILLER_0_29_261
*1164 FILLER_0_29_265
*1165 FILLER_0_29_27
*1166 FILLER_0_29_277
*1167 FILLER_0_29_284
*1168 FILLER_0_29_299
*1169 FILLER_0_29_3
*1170 FILLER_0_29_303
*1171 FILLER_0_29_332
*1172 FILLER_0_29_39
*1173 FILLER_0_29_51
*1174 FILLER_0_29_55
*1175 FILLER_0_29_57
*1176 FILLER_0_29_65
*1177 FILLER_0_2_109
*1178 FILLER_0_2_121
*1179 FILLER_0_2_133
*1180 FILLER_0_2_139
*1181 FILLER_0_2_141
*1182 FILLER_0_2_15
*1183 FILLER_0_2_153
*1184 FILLER_0_2_165
*1185 FILLER_0_2_177
*1186 FILLER_0_2_189
*1187 FILLER_0_2_195
*1188 FILLER_0_2_197
*1189 FILLER_0_2_209
*1190 FILLER_0_2_221
*1191 FILLER_0_2_233
*1192 FILLER_0_2_245
*1193 FILLER_0_2_251
*1194 FILLER_0_2_253
*1195 FILLER_0_2_265
*1196 FILLER_0_2_27
*1197 FILLER_0_2_277
*1198 FILLER_0_2_289
*1199 FILLER_0_2_29
*1200 FILLER_0_2_3
*1201 FILLER_0_2_301
*1202 FILLER_0_2_307
*1203 FILLER_0_2_309
*1204 FILLER_0_2_321
*1205 FILLER_0_2_333
*1206 FILLER_0_2_41
*1207 FILLER_0_2_53
*1208 FILLER_0_2_65
*1209 FILLER_0_2_77
*1210 FILLER_0_2_83
*1211 FILLER_0_2_85
*1212 FILLER_0_2_97
*1213 FILLER_0_30_101
*1214 FILLER_0_30_139
*1215 FILLER_0_30_141
*1216 FILLER_0_30_149
*1217 FILLER_0_30_15
*1218 FILLER_0_30_160
*1219 FILLER_0_30_200
*1220 FILLER_0_30_208
*1221 FILLER_0_30_232
*1222 FILLER_0_30_244
*1223 FILLER_0_30_27
*1224 FILLER_0_30_281
*1225 FILLER_0_30_29
*1226 FILLER_0_30_3
*1227 FILLER_0_30_300
*1228 FILLER_0_30_305
*1229 FILLER_0_30_316
*1230 FILLER_0_30_328
*1231 FILLER_0_30_334
*1232 FILLER_0_30_41
*1233 FILLER_0_30_53
*1234 FILLER_0_30_65
*1235 FILLER_0_30_77
*1236 FILLER_0_30_82
*1237 FILLER_0_30_85
*1238 FILLER_0_30_93
*1239 FILLER_0_31_110
*1240 FILLER_0_31_141
*1241 FILLER_0_31_15
*1242 FILLER_0_31_153
*1243 FILLER_0_31_165
*1244 FILLER_0_31_169
*1245 FILLER_0_31_203
*1246 FILLER_0_31_215
*1247 FILLER_0_31_219
*1248 FILLER_0_31_223
*1249 FILLER_0_31_225
*1250 FILLER_0_31_237
*1251 FILLER_0_31_245
*1252 FILLER_0_31_27
*1253 FILLER_0_31_278
*1254 FILLER_0_31_281
*1255 FILLER_0_31_3
*1256 FILLER_0_31_315
*1257 FILLER_0_31_327
*1258 FILLER_0_31_39
*1259 FILLER_0_31_51
*1260 FILLER_0_31_55
*1261 FILLER_0_31_57
*1262 FILLER_0_31_65
*1263 FILLER_0_31_98
*1264 FILLER_0_32_101
*1265 FILLER_0_32_135
*1266 FILLER_0_32_139
*1267 FILLER_0_32_141
*1268 FILLER_0_32_149
*1269 FILLER_0_32_15
*1270 FILLER_0_32_153
*1271 FILLER_0_32_165
*1272 FILLER_0_32_171
*1273 FILLER_0_32_179
*1274 FILLER_0_32_183
*1275 FILLER_0_32_187
*1276 FILLER_0_32_197
*1277 FILLER_0_32_209
*1278 FILLER_0_32_242
*1279 FILLER_0_32_250
*1280 FILLER_0_32_253
*1281 FILLER_0_32_262
*1282 FILLER_0_32_266
*1283 FILLER_0_32_27
*1284 FILLER_0_32_275
*1285 FILLER_0_32_279
*1286 FILLER_0_32_29
*1287 FILLER_0_32_3
*1288 FILLER_0_32_312
*1289 FILLER_0_32_324
*1290 FILLER_0_32_332
*1291 FILLER_0_32_41
*1292 FILLER_0_32_53
*1293 FILLER_0_32_65
*1294 FILLER_0_32_77
*1295 FILLER_0_32_81
*1296 FILLER_0_32_85
*1297 FILLER_0_32_89
*1298 FILLER_0_33_108
*1299 FILLER_0_33_116
*1300 FILLER_0_33_122
*1301 FILLER_0_33_128
*1302 FILLER_0_33_15
*1303 FILLER_0_33_172
*1304 FILLER_0_33_179
*1305 FILLER_0_33_191
*1306 FILLER_0_33_203
*1307 FILLER_0_33_211
*1308 FILLER_0_33_228
*1309 FILLER_0_33_249
*1310 FILLER_0_33_257
*1311 FILLER_0_33_27
*1312 FILLER_0_33_270
*1313 FILLER_0_33_279
*1314 FILLER_0_33_287
*1315 FILLER_0_33_3
*1316 FILLER_0_33_320
*1317 FILLER_0_33_332
*1318 FILLER_0_33_39
*1319 FILLER_0_33_51
*1320 FILLER_0_33_55
*1321 FILLER_0_33_57
*1322 FILLER_0_33_96
*1323 FILLER_0_34_101
*1324 FILLER_0_34_130
*1325 FILLER_0_34_138
*1326 FILLER_0_34_141
*1327 FILLER_0_34_15
*1328 FILLER_0_34_173
*1329 FILLER_0_34_185
*1330 FILLER_0_34_193
*1331 FILLER_0_34_197
*1332 FILLER_0_34_204
*1333 FILLER_0_34_210
*1334 FILLER_0_34_251
*1335 FILLER_0_34_256
*1336 FILLER_0_34_262
*1337 FILLER_0_34_27
*1338 FILLER_0_34_29
*1339 FILLER_0_34_297
*1340 FILLER_0_34_3
*1341 FILLER_0_34_307
*1342 FILLER_0_34_309
*1343 FILLER_0_34_321
*1344 FILLER_0_34_333
*1345 FILLER_0_34_41
*1346 FILLER_0_34_53
*1347 FILLER_0_34_65
*1348 FILLER_0_34_83
*1349 FILLER_0_34_85
*1350 FILLER_0_34_97
*1351 FILLER_0_35_107
*1352 FILLER_0_35_111
*1353 FILLER_0_35_113
*1354 FILLER_0_35_119
*1355 FILLER_0_35_123
*1356 FILLER_0_35_135
*1357 FILLER_0_35_15
*1358 FILLER_0_35_163
*1359 FILLER_0_35_167
*1360 FILLER_0_35_169
*1361 FILLER_0_35_174
*1362 FILLER_0_35_212
*1363 FILLER_0_35_220
*1364 FILLER_0_35_248
*1365 FILLER_0_35_27
*1366 FILLER_0_35_3
*1367 FILLER_0_35_309
*1368 FILLER_0_35_325
*1369 FILLER_0_35_333
*1370 FILLER_0_35_39
*1371 FILLER_0_35_51
*1372 FILLER_0_35_55
*1373 FILLER_0_35_57
*1374 FILLER_0_35_93
*1375 FILLER_0_35_98
*1376 FILLER_0_36_116
*1377 FILLER_0_36_123
*1378 FILLER_0_36_132
*1379 FILLER_0_36_141
*1380 FILLER_0_36_15
*1381 FILLER_0_36_187
*1382 FILLER_0_36_223
*1383 FILLER_0_36_253
*1384 FILLER_0_36_27
*1385 FILLER_0_36_29
*1386 FILLER_0_36_3
*1387 FILLER_0_36_302
*1388 FILLER_0_36_312
*1389 FILLER_0_36_322
*1390 FILLER_0_36_334
*1391 FILLER_0_36_41
*1392 FILLER_0_36_53
*1393 FILLER_0_36_65
*1394 FILLER_0_36_77
*1395 FILLER_0_36_83
*1396 FILLER_0_37_109
*1397 FILLER_0_37_141
*1398 FILLER_0_37_15
*1399 FILLER_0_37_173
*1400 FILLER_0_37_214
*1401 FILLER_0_37_218
*1402 FILLER_0_37_27
*1403 FILLER_0_37_279
*1404 FILLER_0_37_281
*1405 FILLER_0_37_291
*1406 FILLER_0_37_3
*1407 FILLER_0_37_303
*1408 FILLER_0_37_39
*1409 FILLER_0_37_51
*1410 FILLER_0_37_55
*1411 FILLER_0_37_57
*1412 FILLER_0_37_69
*1413 FILLER_0_37_77
*1414 FILLER_0_38_10
*1415 FILLER_0_38_102
*1416 FILLER_0_38_106
*1417 FILLER_0_38_110
*1418 FILLER_0_38_113
*1419 FILLER_0_38_121
*1420 FILLER_0_38_126
*1421 FILLER_0_38_138
*1422 FILLER_0_38_14
*1423 FILLER_0_38_141
*1424 FILLER_0_38_146
*1425 FILLER_0_38_150
*1426 FILLER_0_38_162
*1427 FILLER_0_38_169
*1428 FILLER_0_38_18
*1429 FILLER_0_38_181
*1430 FILLER_0_38_195
*1431 FILLER_0_38_197
*1432 FILLER_0_38_209
*1433 FILLER_0_38_22
*1434 FILLER_0_38_221
*1435 FILLER_0_38_225
*1436 FILLER_0_38_229
*1437 FILLER_0_38_242
*1438 FILLER_0_38_253
*1439 FILLER_0_38_265
*1440 FILLER_0_38_270
*1441 FILLER_0_38_274
*1442 FILLER_0_38_278
*1443 FILLER_0_38_281
*1444 FILLER_0_38_286
*1445 FILLER_0_38_290
*1446 FILLER_0_38_297
*1447 FILLER_0_38_302
*1448 FILLER_0_38_307
*1449 FILLER_0_38_309
*1450 FILLER_0_38_318
*1451 FILLER_0_38_32
*1452 FILLER_0_38_330
*1453 FILLER_0_38_334
*1454 FILLER_0_38_38
*1455 FILLER_0_38_42
*1456 FILLER_0_38_46
*1457 FILLER_0_38_50
*1458 FILLER_0_38_54
*1459 FILLER_0_38_57
*1460 FILLER_0_38_6
*1461 FILLER_0_38_62
*1462 FILLER_0_38_66
*1463 FILLER_0_38_70
*1464 FILLER_0_38_74
*1465 FILLER_0_38_78
*1466 FILLER_0_38_88
*1467 FILLER_0_38_94
*1468 FILLER_0_38_98
*1469 FILLER_0_3_105
*1470 FILLER_0_3_111
*1471 FILLER_0_3_113
*1472 FILLER_0_3_125
*1473 FILLER_0_3_137
*1474 FILLER_0_3_149
*1475 FILLER_0_3_15
*1476 FILLER_0_3_161
*1477 FILLER_0_3_167
*1478 FILLER_0_3_169
*1479 FILLER_0_3_181
*1480 FILLER_0_3_193
*1481 FILLER_0_3_205
*1482 FILLER_0_3_217
*1483 FILLER_0_3_223
*1484 FILLER_0_3_225
*1485 FILLER_0_3_237
*1486 FILLER_0_3_249
*1487 FILLER_0_3_261
*1488 FILLER_0_3_27
*1489 FILLER_0_3_273
*1490 FILLER_0_3_279
*1491 FILLER_0_3_281
*1492 FILLER_0_3_293
*1493 FILLER_0_3_3
*1494 FILLER_0_3_305
*1495 FILLER_0_3_317
*1496 FILLER_0_3_329
*1497 FILLER_0_3_39
*1498 FILLER_0_3_51
*1499 FILLER_0_3_55
*1500 FILLER_0_3_57
*1501 FILLER_0_3_69
*1502 FILLER_0_3_81
*1503 FILLER_0_3_93
*1504 FILLER_0_4_109
*1505 FILLER_0_4_121
*1506 FILLER_0_4_133
*1507 FILLER_0_4_139
*1508 FILLER_0_4_141
*1509 FILLER_0_4_15
*1510 FILLER_0_4_153
*1511 FILLER_0_4_165
*1512 FILLER_0_4_177
*1513 FILLER_0_4_189
*1514 FILLER_0_4_195
*1515 FILLER_0_4_197
*1516 FILLER_0_4_209
*1517 FILLER_0_4_221
*1518 FILLER_0_4_233
*1519 FILLER_0_4_245
*1520 FILLER_0_4_251
*1521 FILLER_0_4_253
*1522 FILLER_0_4_265
*1523 FILLER_0_4_27
*1524 FILLER_0_4_277
*1525 FILLER_0_4_289
*1526 FILLER_0_4_29
*1527 FILLER_0_4_3
*1528 FILLER_0_4_301
*1529 FILLER_0_4_307
*1530 FILLER_0_4_309
*1531 FILLER_0_4_321
*1532 FILLER_0_4_333
*1533 FILLER_0_4_41
*1534 FILLER_0_4_53
*1535 FILLER_0_4_65
*1536 FILLER_0_4_77
*1537 FILLER_0_4_83
*1538 FILLER_0_4_85
*1539 FILLER_0_4_97
*1540 FILLER_0_5_105
*1541 FILLER_0_5_111
*1542 FILLER_0_5_113
*1543 FILLER_0_5_125
*1544 FILLER_0_5_137
*1545 FILLER_0_5_149
*1546 FILLER_0_5_15
*1547 FILLER_0_5_161
*1548 FILLER_0_5_167
*1549 FILLER_0_5_169
*1550 FILLER_0_5_181
*1551 FILLER_0_5_193
*1552 FILLER_0_5_205
*1553 FILLER_0_5_217
*1554 FILLER_0_5_223
*1555 FILLER_0_5_225
*1556 FILLER_0_5_237
*1557 FILLER_0_5_249
*1558 FILLER_0_5_261
*1559 FILLER_0_5_27
*1560 FILLER_0_5_273
*1561 FILLER_0_5_279
*1562 FILLER_0_5_281
*1563 FILLER_0_5_293
*1564 FILLER_0_5_3
*1565 FILLER_0_5_305
*1566 FILLER_0_5_317
*1567 FILLER_0_5_329
*1568 FILLER_0_5_39
*1569 FILLER_0_5_51
*1570 FILLER_0_5_55
*1571 FILLER_0_5_57
*1572 FILLER_0_5_69
*1573 FILLER_0_5_81
*1574 FILLER_0_5_93
*1575 FILLER_0_6_109
*1576 FILLER_0_6_121
*1577 FILLER_0_6_133
*1578 FILLER_0_6_139
*1579 FILLER_0_6_141
*1580 FILLER_0_6_15
*1581 FILLER_0_6_153
*1582 FILLER_0_6_165
*1583 FILLER_0_6_177
*1584 FILLER_0_6_189
*1585 FILLER_0_6_195
*1586 FILLER_0_6_197
*1587 FILLER_0_6_209
*1588 FILLER_0_6_221
*1589 FILLER_0_6_233
*1590 FILLER_0_6_245
*1591 FILLER_0_6_251
*1592 FILLER_0_6_253
*1593 FILLER_0_6_265
*1594 FILLER_0_6_27
*1595 FILLER_0_6_277
*1596 FILLER_0_6_289
*1597 FILLER_0_6_29
*1598 FILLER_0_6_3
*1599 FILLER_0_6_301
*1600 FILLER_0_6_307
*1601 FILLER_0_6_309
*1602 FILLER_0_6_321
*1603 FILLER_0_6_333
*1604 FILLER_0_6_41
*1605 FILLER_0_6_53
*1606 FILLER_0_6_65
*1607 FILLER_0_6_77
*1608 FILLER_0_6_83
*1609 FILLER_0_6_85
*1610 FILLER_0_6_97
*1611 FILLER_0_7_105
*1612 FILLER_0_7_111
*1613 FILLER_0_7_113
*1614 FILLER_0_7_125
*1615 FILLER_0_7_137
*1616 FILLER_0_7_149
*1617 FILLER_0_7_15
*1618 FILLER_0_7_161
*1619 FILLER_0_7_167
*1620 FILLER_0_7_169
*1621 FILLER_0_7_181
*1622 FILLER_0_7_193
*1623 FILLER_0_7_205
*1624 FILLER_0_7_217
*1625 FILLER_0_7_223
*1626 FILLER_0_7_225
*1627 FILLER_0_7_237