*SPEF "ieee 1481-1999"
*DESIGN "tt_um_wokwi_395357890431011841"
*DATE "23:25:59 Tuesday April 16, 2024"
*VENDOR "The OpenROAD Project"
*PROGRAM "OpenROAD"
*VERSION "0889970d1790a2617e69f253221b8bd7626e51dc"
*DESIGN_FLOW "NAME_SCOPE LOCAL" "PIN_CAP NONE"
*DIVIDER /
*DELIMITER :
*BUS_DELIMITER []
*T_UNIT 1 NS
*C_UNIT 1 PF
*R_UNIT 1 OHM
*L_UNIT 1 HENRY

*NAME_MAP
*3 clk
*4 ena
*5 rst_n
*6 ui_in[0]
*7 ui_in[1]
*8 ui_in[2]
*9 ui_in[3]
*10 ui_in[4]
*11 ui_in[5]
*12 ui_in[6]
*13 ui_in[7]
*14 uio_in[0]
*15 uio_in[1]
*16 uio_in[2]
*17 uio_in[3]
*18 uio_in[4]
*19 uio_in[5]
*20 uio_in[6]
*21 uio_in[7]
*22 net3
*23 net4
*24 net5
*25 net6
*26 net7
*27 net8
*28 net9
*29 net10
*30 net11
*31 net12
*32 net13
*33 net14
*34 net15
*35 net16
*36 net17
*37 net18
*38 uo_out[0]
*39 uo_out[1]
*40 uo_out[2]
*41 uo_out[3]
*42 uo_out[4]
*43 uo_out[5]
*44 uo_out[6]
*45 uo_out[7]
*46 _000_
*47 _001_
*48 _002_
*49 _003_
*50 _004_
*51 _005_
*52 _006_
*53 _007_
*54 _008_
*55 _009_
*56 _010_
*57 _011_
*58 _012_
*59 _013_
*60 _014_
*61 _015_
*62 _016_
*63 _017_
*64 _018_
*65 _019_
*66 _020_
*67 _021_
*68 _022_
*69 _023_
*70 _024_
*71 _025_
*72 _026_
*73 _027_
*74 _028_
*75 _029_
*76 _030_
*77 _031_
*78 _032_
*79 _033_
*80 _034_
*81 _035_
*82 _036_
*83 _037_
*84 _038_
*85 _039_
*86 _040_
*87 _041_
*88 _042_
*89 _043_
*90 _044_
*91 _045_
*92 _046_
*93 _047_
*94 _048_
*95 _049_
*96 _050_
*97 _051_
*98 _052_
*99 _053_
*100 _054_
*101 _055_
*102 _056_
*103 _057_
*104 _058_
*105 _059_
*106 _060_
*107 _061_
*108 _062_
*109 _063_
*110 _064_
*111 _065_
*112 _066_
*113 _067_
*114 _068_
*115 _069_
*116 _070_
*117 _071_
*118 _072_
*119 _073_
*120 _074_
*121 _075_
*122 _076_
*123 _077_
*124 _078_
*125 _079_
*126 _080_
*127 _081_
*128 _082_
*129 _083_
*130 _084_
*131 _085_
*132 _086_
*133 _087_
*134 _088_
*135 _089_
*136 _090_
*137 _091_
*138 _092_
*139 _093_
*140 _094_
*141 _095_
*142 _096_
*143 _097_
*144 _098_
*145 _099_
*146 _100_
*147 _101_
*148 _102_
*149 _103_
*150 _104_
*151 _105_
*152 _106_
*153 _107_
*154 _108_
*155 _109_
*156 _110_
*157 _111_
*158 _112_
*159 _113_
*160 _114_
*161 and5\.a
*162 and5\.b
*163 and6\.a
*164 and6\.b
*165 and8\.a
*166 and8\.b
*167 clknet_0_clk
*168 clknet_1_0__leaf_clk
*169 clknet_1_1__leaf_clk
*170 clknet_leaf_0_clk
*171 clknet_leaf_10_clk
*172 clknet_leaf_11_clk
*173 clknet_leaf_1_clk
*174 clknet_leaf_2_clk
*175 clknet_leaf_3_clk
*176 clknet_leaf_4_clk
*177 clknet_leaf_5_clk
*178 clknet_leaf_6_clk
*179 clknet_leaf_7_clk
*180 clknet_leaf_8_clk
*181 clknet_leaf_9_clk
*182 flipflop0\.d
*183 flipflop0\.q
*184 flipflop1\.q
*185 flipflop10\.d
*186 flipflop10\.q
*187 flipflop100\.d
*188 flipflop100\.q
*189 flipflop101\.q
*190 flipflop102\.q
*191 flipflop103\.q
*192 flipflop104\.q
*193 flipflop105\.q
*194 flipflop106\.q
*195 flipflop107\.q
*196 flipflop108\.q
*197 flipflop109\.q
*198 flipflop11\.q
*199 flipflop110\.q
*200 flipflop111\.q
*201 flipflop112\.q
*202 flipflop113\.q
*203 flipflop114\.q
*204 flipflop115\.q
*205 flipflop116\.q
*206 flipflop117\.q
*207 flipflop118\.q
*208 flipflop119\.q
*209 flipflop12\.q
*210 flipflop120\.q
*211 flipflop121\.q
*212 flipflop122\.q
*213 flipflop123\.q
*214 flipflop124\.q
*215 flipflop125\.q
*216 flipflop126\.q
*217 flipflop127\.q
*218 flipflop128\.q
*219 flipflop129\.q
*220 flipflop13\.q
*221 flipflop130\.q
*222 flipflop131\.q
*223 flipflop132\.q
*224 flipflop133\.q
*225 flipflop134\.q
*226 flipflop135\.q
*227 flipflop136\.q
*228 flipflop137\.q
*229 flipflop138\.q
*230 flipflop139\.q
*231 flipflop14\.q
*232 flipflop140\.q
*233 flipflop141\.q
*234 flipflop142\.q
*235 flipflop143\.q
*236 flipflop144\.q
*237 flipflop145\.q
*238 flipflop146\.q
*239 flipflop147\.q
*240 flipflop148\.q
*241 flipflop149\.q
*242 flipflop15\.q
*243 flipflop150\.q
*244 flipflop151\.q
*245 flipflop152\.q
*246 flipflop153\.q
*247 flipflop154\.q
*248 flipflop155\.q
*249 flipflop156\.q
*250 flipflop157\.q
*251 flipflop158\.q
*252 flipflop159\.q
*253 flipflop16\.q
*254 flipflop160\.q
*255 flipflop161\.q
*256 flipflop162\.q
*257 flipflop163\.q
*258 flipflop164\.q
*259 flipflop165\.q
*260 flipflop166\.q
*261 flipflop167\.q
*262 flipflop168\.q
*263 flipflop169\.q
*264 flipflop17\.q
*265 flipflop170\.q
*266 flipflop171\.q
*267 flipflop172\.q
*268 flipflop173\.q
*269 flipflop176\.q
*270 flipflop177\.d
*271 flipflop177\.q
*272 flipflop178\.q
*273 flipflop179\.q
*274 flipflop18\.q
*275 flipflop180\.q
*276 flipflop181\.q
*277 flipflop182\.q
*278 flipflop183\.q
*279 flipflop184\.q
*280 flipflop185\.q
*281 flipflop186\.q
*282 flipflop187\.q
*283 flipflop188\.q
*284 flipflop189\.q
*285 flipflop19\.q
*286 flipflop190\.q
*287 flipflop191\.q
*288 flipflop192\.q
*289 flipflop193\.q
*290 flipflop194\.q
*291 flipflop195\.q
*292 flipflop196\.q
*293 flipflop197\.q
*294 flipflop198\.q
*295 flipflop199\.q
*296 flipflop2\.q
*297 flipflop20\.q
*298 flipflop200\.q
*299 flipflop201\.q
*300 flipflop202\.q
*301 flipflop203\.q
*302 flipflop204\.q
*303 flipflop205\.q
*304 flipflop206\.q
*305 flipflop207\.q
*306 flipflop208\.q
*307 flipflop209\.q
*308 flipflop21\.q
*309 flipflop210\.q
*310 flipflop211\.q
*311 flipflop212\.q
*312 flipflop213\.q
*313 flipflop214\.q
*314 flipflop215\.q
*315 flipflop216\.q
*316 flipflop217\.q
*317 flipflop218\.q
*318 flipflop219\.q
*319 flipflop22\.q
*320 flipflop220\.q
*321 flipflop221\.q
*322 flipflop222\.q
*323 flipflop223\.q
*324 flipflop224\.q
*325 flipflop225\.q
*326 flipflop226\.q
*327 flipflop227\.q
*328 flipflop228\.q
*329 flipflop229\.q
*330 flipflop23\.q
*331 flipflop230\.q
*332 flipflop231\.q
*333 flipflop232\.q
*334 flipflop233\.q
*335 flipflop234\.q
*336 flipflop235\.q
*337 flipflop236\.q
*338 flipflop237\.q
*339 flipflop238\.q
*340 flipflop239\.q
*341 flipflop24\.q
*342 flipflop240\.q
*343 flipflop241\.q
*344 flipflop242\.q
*345 flipflop243\.q
*346 flipflop244\.q
*347 flipflop245\.q
*348 flipflop246\.q
*349 flipflop247\.q
*350 flipflop248\.q
*351 flipflop249\.q
*352 flipflop25\.q
*353 flipflop250\.q
*354 flipflop251\.q
*355 flipflop252\.q
*356 flipflop253\.q
*357 flipflop254\.q
*358 flipflop255\.q
*359 flipflop256\.q
*360 flipflop257\.q
*361 flipflop258\.q
*362 flipflop259\.q
*363 flipflop26\.q
*364 flipflop260\.q
*365 flipflop261\.q
*366 flipflop262\.q
*367 flipflop263\.q
*368 flipflop264\.q
*369 flipflop265\.q
*370 flipflop266\.q
*371 flipflop267\.q
*372 flipflop268\.q
*373 flipflop269\.q
*374 flipflop27\.q
*375 flipflop270\.q
*376 flipflop271\.q
*377 flipflop272\.q
*378 flipflop273\.q
*379 flipflop274\.q
*380 flipflop275\.q
*381 flipflop276\.q
*382 flipflop277\.q
*383 flipflop278\.q
*384 flipflop279\.q
*385 flipflop28\.q
*386 flipflop280\.q
*387 flipflop281\.q
*388 flipflop282\.q
*389 flipflop283\.q
*390 flipflop284\.q
*391 flipflop287\.q
*392 flipflop29\.q
*393 flipflop3\.q
*394 flipflop30\.q
*395 flipflop31\.q
*396 flipflop32\.q
*397 flipflop33\.q
*398 flipflop34\.q
*399 flipflop35\.q
*400 flipflop36\.q
*401 flipflop37\.q
*402 flipflop38\.q
*403 flipflop39\.q
*404 flipflop4\.q
*405 flipflop40\.q
*406 flipflop41\.q
*407 flipflop42\.q
*408 flipflop43\.q
*409 flipflop44\.q
*410 flipflop45\.q
*411 flipflop46\.q
*412 flipflop47\.q
*413 flipflop48\.q
*414 flipflop49\.q
*415 flipflop5\.q
*416 flipflop50\.q
*417 flipflop51\.q
*418 flipflop52\.q
*419 flipflop53\.q
*420 flipflop54\.q
*421 flipflop55\.q
*422 flipflop56\.q
*423 flipflop57\.q
*424 flipflop58\.q
*425 flipflop59\.q
*426 flipflop6\.q
*427 flipflop60\.q
*428 flipflop61\.q
*429 flipflop62\.q
*430 flipflop63\.q
*431 flipflop64\.q
*432 flipflop65\.q
*433 flipflop66\.q
*434 flipflop67\.q
*435 flipflop68\.q
*436 flipflop69\.q
*437 flipflop7\.q
*438 flipflop70\.q
*439 flipflop71\.q
*440 flipflop72\.q
*441 flipflop73\.q
*442 flipflop74\.q
*443 flipflop75\.q
*444 flipflop76\.q
*445 flipflop77\.q
*446 flipflop78\.q
*447 flipflop79\.q
*448 flipflop8\.q
*449 flipflop80\.q
*450 flipflop81\.q
*451 flipflop82\.q
*452 flipflop83\.q
*453 flipflop84\.q
*454 flipflop85\.q
*455 flipflop86\.q
*456 flipflop87\.q
*457 flipflop88\.q
*458 flipflop89\.q
*459 flipflop92\.q
*460 flipflop93\.d
*461 flipflop93\.q
*462 flipflop94\.q
*463 flipflop95\.q
*464 flipflop96\.q
*465 flipflop97\.q
*466 flipflop98\.q
*467 net1
*468 net100
*469 net101
*470 net102
*471 net103
*472 net104
*473 net105
*474 net106
*475 net107
*476 net108
*477 net109
*478 net110
*479 net111
*480 net112
*481 net113
*482 net114
*483 net115
*484 net116
*485 net117
*486 net118
*487 net119
*488 net120
*489 net121
*490 net122
*491 net123
*492 net124
*493 net125
*494 net126
*495 net127
*496 net128
*497 net129
*498 net130
*499 net131
*500 net132
*501 net133
*502 net134
*503 net135
*504 net136
*505 net137
*506 net138
*507 net139
*508 net140
*509 net141
*510 net142
*511 net143
*512 net144
*513 net145
*514 net146
*515 net147
*516 net148
*517 net149
*518 net150
*519 net151
*520 net152
*521 net153
*522 net154
*523 net155
*524 net156
*525 net157
*526 net158
*527 net159
*528 net160
*529 net161
*530 net162
*531 net163
*532 net164
*533 net165
*534 net166
*535 net167
*536 net168
*537 net169
*538 net170
*539 net171
*540 net172
*541 net173
*542 net174
*543 net175
*544 net176
*545 net177
*546 net178
*547 net179
*548 net180
*549 net181
*550 net182
*551 net183
*552 net184
*553 net185
*554 net186
*555 net187
*556 net188
*557 net189
*558 net19
*559 net190
*560 net191
*561 net192
*562 net193
*563 net194
*564 net195
*565 net196
*566 net197
*567 net198
*568 net199
*569 net2
*570 net20
*571 net200
*572 net201
*573 net202
*574 net203
*575 net204
*576 net205
*577 net206
*578 net207
*579 net208
*580 net209
*581 net21
*582 net210
*583 net211
*584 net212
*585 net213
*586 net214
*587 net215
*588 net216
*589 net217
*590 net218
*591 net219
*592 net22
*593 net220
*594 net221
*595 net222
*596 net223
*597 net224
*598 net225
*599 net226
*600 net227
*601 net228
*602 net229
*603 net23
*604 net230
*605 net231
*606 net232
*607 net233
*608 net234
*609 net235
*610 net236
*611 net237
*612 net238
*613 net239
*614 net24
*615 net240
*616 net241
*617 net242
*618 net243
*619 net244
*620 net245
*621 net246
*622 net247
*623 net248
*624 net249
*625 net25
*626 net250
*627 net251
*628 net252
*629 net253
*630 net254
*631 net255
*632 net256
*633 net257
*634 net258
*635 net259
*636 net26
*637 net260
*638 net261
*639 net262
*640 net263
*641 net264
*642 net265
*643 net266
*644 net267
*645 net268
*646 net269
*647 net27
*648 net270
*649 net271
*650 net272
*651 net273
*652 net274
*653 net275
*654 net276
*655 net277
*656 net278
*657 net279
*658 net28
*659 net280
*660 net281
*661 net282
*662 net283
*663 net284
*664 net285
*665 net286
*666 net287
*667 net288
*668 net289
*669 net29
*670 net290
*671 net291
*672 net292
*673 net293
*674 net294
*675 net295
*676 net296
*677 net297
*678 net298
*679 net299
*680 net30
*681 net300
*682 net301
*683 net302
*684 net303
*685 net304
*686 net31
*687 net32
*688 net33
*689 net34
*690 net35
*691 net36
*692 net37
*693 net38
*694 net39
*695 net40
*696 net41
*697 net42
*698 net43
*699 net44
*700 net45
*701 net46
*702 net47
*703 net48
*704 net49
*705 net50
*706 net51
*707 net52
*708 net53
*709 net54
*710 net55
*711 net56
*712 net57
*713 net58
*714 net59
*715 net60
*716 net61
*717 net62
*718 net63
*719 net64
*720 net65
*721 net66
*722 net67
*723 net68
*724 net69
*725 net70
*726 net71
*727 net72
*728 net73
*729 net74
*730 net75
*731 net76
*732 net77
*733 net78
*734 net79
*735 net80
*736 net81
*737 net82
*738 net83
*739 net84
*740 net85
*741 net86
*742 net87
*743 net88
*744 net89
*745 net90
*746 net91
*747 net92
*748 net93
*749 net94
*750 net95
*751 net96
*752 net97
*753 net98
*754 net99
*755 xor11\.out
*756 FILLER_0_0_109
*757 FILLER_0_0_113
*758 FILLER_0_0_125
*759 FILLER_0_0_137
*760 FILLER_0_0_141
*761 FILLER_0_0_15
*762 FILLER_0_0_153
*763 FILLER_0_0_165
*764 FILLER_0_0_169
*765 FILLER_0_0_181
*766 FILLER_0_0_193
*767 FILLER_0_0_197
*768 FILLER_0_0_209
*769 FILLER_0_0_221
*770 FILLER_0_0_225
*771 FILLER_0_0_237
*772 FILLER_0_0_249
*773 FILLER_0_0_253
*774 FILLER_0_0_265
*775 FILLER_0_0_27
*776 FILLER_0_0_277
*777 FILLER_0_0_281
*778 FILLER_0_0_29
*779 FILLER_0_0_293
*780 FILLER_0_0_3
*781 FILLER_0_0_305
*782 FILLER_0_0_309
*783 FILLER_0_0_321
*784 FILLER_0_0_333
*785 FILLER_0_0_41
*786 FILLER_0_0_53
*787 FILLER_0_0_57
*788 FILLER_0_0_69
*789 FILLER_0_0_81
*790 FILLER_0_0_85
*791 FILLER_0_0_97
*792 FILLER_0_10_112
*793 FILLER_0_10_120
*794 FILLER_0_10_137
*795 FILLER_0_10_195
*796 FILLER_0_10_197
*797 FILLER_0_10_201
*798 FILLER_0_10_250
*799 FILLER_0_10_253
*800 FILLER_0_10_26
*801 FILLER_0_10_29
*802 FILLER_0_10_3
*803 FILLER_0_10_305
*804 FILLER_0_10_317
*805 FILLER_0_10_329
*806 FILLER_0_10_35
*807 FILLER_0_10_44
*808 FILLER_0_10_63
*809 FILLER_0_10_75
*810 FILLER_0_10_83
*811 FILLER_0_10_9
*812 FILLER_0_11_110
*813 FILLER_0_11_113
*814 FILLER_0_11_119
*815 FILLER_0_11_185
*816 FILLER_0_11_221
*817 FILLER_0_11_249
*818 FILLER_0_11_257
*819 FILLER_0_11_266
*820 FILLER_0_11_281
*821 FILLER_0_11_3
*822 FILLER_0_11_321
*823 FILLER_0_11_33
*824 FILLER_0_11_333
*825 FILLER_0_11_39
*826 FILLER_0_11_73
*827 FILLER_0_11_79
*828 FILLER_0_12_115
*829 FILLER_0_12_133
*830 FILLER_0_12_139
*831 FILLER_0_12_149
*832 FILLER_0_12_157
*833 FILLER_0_12_174
*834 FILLER_0_12_189
*835 FILLER_0_12_203
*836 FILLER_0_12_221
*837 FILLER_0_12_235
*838 FILLER_0_12_253
*839 FILLER_0_12_265
*840 FILLER_0_12_269
*841 FILLER_0_12_27
*842 FILLER_0_12_286
*843 FILLER_0_12_3
*844 FILLER_0_12_305
*845 FILLER_0_12_309
*846 FILLER_0_12_321
*847 FILLER_0_12_333
*848 FILLER_0_12_43
*849 FILLER_0_12_62
*850 FILLER_0_12_80
*851 FILLER_0_13_108
*852 FILLER_0_13_113
*853 FILLER_0_13_140
*854 FILLER_0_13_152
*855 FILLER_0_13_156
*856 FILLER_0_13_165
*857 FILLER_0_13_169
*858 FILLER_0_13_189
*859 FILLER_0_13_197
*860 FILLER_0_13_223
*861 FILLER_0_13_225
*862 FILLER_0_13_273
*863 FILLER_0_13_281
*864 FILLER_0_13_285
*865 FILLER_0_13_3
*866 FILLER_0_13_302
*867 FILLER_0_13_314
*868 FILLER_0_13_326
*869 FILLER_0_13_334
*870 FILLER_0_13_41
*871 FILLER_0_13_47
*872 FILLER_0_13_57
*873 FILLER_0_13_75
*874 FILLER_0_13_79
*875 FILLER_0_13_96
*876 FILLER_0_14_105
*877 FILLER_0_14_11
*878 FILLER_0_14_137
*879 FILLER_0_14_141
*880 FILLER_0_14_153
*881 FILLER_0_14_191
*882 FILLER_0_14_195
*883 FILLER_0_14_197
*884 FILLER_0_14_222
*885 FILLER_0_14_226
*886 FILLER_0_14_251
*887 FILLER_0_14_267
*888 FILLER_0_14_3
*889 FILLER_0_14_303
*890 FILLER_0_14_307
*891 FILLER_0_14_333
*892 FILLER_0_14_53
*893 FILLER_0_14_57
*894 FILLER_0_14_82
*895 FILLER_0_14_93
*896 FILLER_0_15_101
*897 FILLER_0_15_109
*898 FILLER_0_15_113
*899 FILLER_0_15_141
*900 FILLER_0_15_149
*901 FILLER_0_15_177
*902 FILLER_0_15_181
*903 FILLER_0_15_190
*904 FILLER_0_15_222
*905 FILLER_0_15_225
*906 FILLER_0_15_269
*907 FILLER_0_15_277
*908 FILLER_0_15_281
*909 FILLER_0_15_293
*910 FILLER_0_15_3
*911 FILLER_0_15_30
*912 FILLER_0_15_305
*913 FILLER_0_15_331
*914 FILLER_0_15_55
*915 FILLER_0_15_7
*916 FILLER_0_15_87
*917 FILLER_0_16_104
*918 FILLER_0_16_108
*919 FILLER_0_16_139
*920 FILLER_0_16_141
*921 FILLER_0_16_149
*922 FILLER_0_16_180
*923 FILLER_0_16_188
*924 FILLER_0_16_197
*925 FILLER_0_16_230
*926 FILLER_0_16_253
*927 FILLER_0_16_265
*928 FILLER_0_16_295
*929 FILLER_0_16_3
*930 FILLER_0_16_333
*931 FILLER_0_16_37
*932 FILLER_0_16_78
*933 FILLER_0_16_85
*934 FILLER_0_17_113
*935 FILLER_0_17_140
*936 FILLER_0_17_160
*937 FILLER_0_17_180
*938 FILLER_0_17_194
*939 FILLER_0_17_221
*940 FILLER_0_17_253
*941 FILLER_0_17_261
*942 FILLER_0_17_297
*943 FILLER_0_17_3
*944 FILLER_0_17_331
*945 FILLER_0_17_51
*946 FILLER_0_17_55
*947 FILLER_0_17_57
*948 FILLER_0_17_61
*949 FILLER_0_17_7
*950 FILLER_0_17_78
*951 FILLER_0_18_109
*952 FILLER_0_18_127
*953 FILLER_0_18_136
*954 FILLER_0_18_141
*955 FILLER_0_18_166
*956 FILLER_0_18_229
*957 FILLER_0_18_248
*958 FILLER_0_18_269
*959 FILLER_0_18_295
*960 FILLER_0_18_299
*961 FILLER_0_18_3
*962 FILLER_0_18_331
*963 FILLER_0_18_61
*964 FILLER_0_18_72
*965 FILLER_0_19_109
*966 FILLER_0_19_129
*967 FILLER_0_19_157
*968 FILLER_0_19_166
*969 FILLER_0_19_223
*970 FILLER_0_19_233
*971 FILLER_0_19_274
*972 FILLER_0_19_289
*973 FILLER_0_19_3
*974 FILLER_0_19_303
*975 FILLER_0_19_331
*976 FILLER_0_19_55
*977 FILLER_0_19_63
*978 FILLER_0_19_75
*979 FILLER_0_1_105
*980 FILLER_0_1_111
*981 FILLER_0_1_113
*982 FILLER_0_1_125
*983 FILLER_0_1_137
*984 FILLER_0_1_149
*985 FILLER_0_1_15
*986 FILLER_0_1_161
*987 FILLER_0_1_167
*988 FILLER_0_1_169
*989 FILLER_0_1_181
*990 FILLER_0_1_193
*991 FILLER_0_1_205
*992 FILLER_0_1_217
*993 FILLER_0_1_223
*994 FILLER_0_1_225
*995 FILLER_0_1_237
*996 FILLER_0_1_249
*997 FILLER_0_1_261
*998 FILLER_0_1_27
*999 FILLER_0_1_273
*1000 FILLER_0_1_279
*1001 FILLER_0_1_281
*1002 FILLER_0_1_293
*1003 FILLER_0_1_3
*1004 FILLER_0_1_305
*1005 FILLER_0_1_317
*1006 FILLER_0_1_329
*1007 FILLER_0_1_39
*1008 FILLER_0_1_51
*1009 FILLER_0_1_55
*1010 FILLER_0_1_57
*1011 FILLER_0_1_69
*1012 FILLER_0_1_81
*1013 FILLER_0_1_93
*1014 FILLER_0_20_107
*1015 FILLER_0_20_136
*1016 FILLER_0_20_141
*1017 FILLER_0_20_159
*1018 FILLER_0_20_169
*1019 FILLER_0_20_188
*1020 FILLER_0_20_205
*1021 FILLER_0_20_23
*1022 FILLER_0_20_241
*1023 FILLER_0_20_250
*1024 FILLER_0_20_27
*1025 FILLER_0_20_285
*1026 FILLER_0_20_29
*1027 FILLER_0_20_3
*1028 FILLER_0_20_307
*1029 FILLER_0_20_333
*1030 FILLER_0_20_62
*1031 FILLER_0_20_74
*1032 FILLER_0_21_113
*1033 FILLER_0_21_161
*1034 FILLER_0_21_167
*1035 FILLER_0_21_169
*1036 FILLER_0_21_183
*1037 FILLER_0_21_191
*1038 FILLER_0_21_203
*1039 FILLER_0_21_207
*1040 FILLER_0_21_225
*1041 FILLER_0_21_251
*1042 FILLER_0_21_277
*1043 FILLER_0_21_3
*1044 FILLER_0_21_32
*1045 FILLER_0_21_7
*1046 FILLER_0_21_73
*1047 FILLER_0_21_79
*1048 FILLER_0_22_135
*1049 FILLER_0_22_139
*1050 FILLER_0_22_141
*1051 FILLER_0_22_147
*1052 FILLER_0_22_185
*1053 FILLER_0_22_194
*1054 FILLER_0_22_197
*1055 FILLER_0_22_22
*1056 FILLER_0_22_251
*1057 FILLER_0_22_253
*1058 FILLER_0_22_278
*1059 FILLER_0_22_29
*1060 FILLER_0_22_292
*1061 FILLER_0_22_3
*1062 FILLER_0_22_303
*1063 FILLER_0_22_307
*1064 FILLER_0_22_333
*1065 FILLER_0_22_63
*1066 FILLER_0_22_74
*1067 FILLER_0_22_82
*1068 FILLER_0_23_129
*1069 FILLER_0_23_153
*1070 FILLER_0_23_169
*1071 FILLER_0_23_204
*1072 FILLER_0_23_222
*1073 FILLER_0_23_225
*1074 FILLER_0_23_259
*1075 FILLER_0_23_279
*1076 FILLER_0_23_281
*1077 FILLER_0_23_29
*1078 FILLER_0_23_3
*1079 FILLER_0_23_333
*1080 FILLER_0_23_54
*1081 FILLER_0_23_69
*1082 FILLER_0_23_73
*1083 FILLER_0_23_98
*1084 FILLER_0_24_123
*1085 FILLER_0_24_173
*1086 FILLER_0_24_190
*1087 FILLER_0_24_203
*1088 FILLER_0_24_223
*1089 FILLER_0_24_245
*1090 FILLER_0_24_251
*1091 FILLER_0_24_253
*1092 FILLER_0_24_26
*1093 FILLER_0_24_281
*1094 FILLER_0_24_293
*1095 FILLER_0_24_3
*1096 FILLER_0_24_309
*1097 FILLER_0_24_37
*1098 FILLER_0_24_67
*1099 FILLER_0_24_9
*1100 FILLER_0_25_110
*1101 FILLER_0_25_167
*1102 FILLER_0_25_17
*1103 FILLER_0_25_209
*1104 FILLER_0_25_221
*1105 FILLER_0_25_225
*1106 FILLER_0_25_233
*1107 FILLER_0_25_276
*1108 FILLER_0_25_289
*1109 FILLER_0_25_3
*1110 FILLER_0_25_34
*1111 FILLER_0_25_65
*1112 FILLER_0_25_69
*1113 FILLER_0_26_109
*1114 FILLER_0_26_128
*1115 FILLER_0_26_139
*1116 FILLER_0_26_141
*1117 FILLER_0_26_152
*1118 FILLER_0_26_169
*1119 FILLER_0_26_177
*1120 FILLER_0_26_213
*1121 FILLER_0_26_237
*1122 FILLER_0_26_246
*1123 FILLER_0_26_259
*1124 FILLER_0_26_283
*1125 FILLER_0_26_29
*1126 FILLER_0_26_291
*1127 FILLER_0_26_3
*1128 FILLER_0_26_333
*1129 FILLER_0_26_47
*1130 FILLER_0_26_67
*1131 FILLER_0_26_79
*1132 FILLER_0_26_83
*1133 FILLER_0_27_121
*1134 FILLER_0_27_155
*1135 FILLER_0_27_167
*1136 FILLER_0_27_169
*1137 FILLER_0_27_173
*1138 FILLER_0_27_214
*1139 FILLER_0_27_222
*1140 FILLER_0_27_249
*1141 FILLER_0_27_258
*1142 FILLER_0_27_262
*1143 FILLER_0_27_279
*1144 FILLER_0_27_3
*1145 FILLER_0_27_55
*1146 FILLER_0_27_73
*1147 FILLER_0_27_81
*1148 FILLER_0_27_91
*1149 FILLER_0_27_95
*1150 FILLER_0_28_114
*1151 FILLER_0_28_131
*1152 FILLER_0_28_157
*1153 FILLER_0_28_165
*1154 FILLER_0_28_175
*1155 FILLER_0_28_179
*1156 FILLER_0_28_213
*1157 FILLER_0_28_217
*1158 FILLER_0_28_250
*1159 FILLER_0_28_261
*1160 FILLER_0_28_29
*1161 FILLER_0_28_3
*1162 FILLER_0_28_305
*1163 FILLER_0_28_309
*1164 FILLER_0_28_334
*1165 FILLER_0_28_83
*1166 FILLER_0_28_91
*1167 FILLER_0_28_97
*1168 FILLER_0_29_107
*1169 FILLER_0_29_111
*1170 FILLER_0_29_113
*1171 FILLER_0_29_123
*1172 FILLER_0_29_134
*1173 FILLER_0_29_167
*1174 FILLER_0_29_169
*1175 FILLER_0_29_181
*1176 FILLER_0_29_204
*1177 FILLER_0_29_216
*1178 FILLER_0_29_225
*1179 FILLER_0_29_229
*1180 FILLER_0_29_260
*1181 FILLER_0_29_281
*1182 FILLER_0_29_295
*1183 FILLER_0_29_3
*1184 FILLER_0_29_331
*1185 FILLER_0_29_46
*1186 FILLER_0_29_63
*1187 FILLER_0_29_96
*1188 FILLER_0_2_109
*1189 FILLER_0_2_121
*1190 FILLER_0_2_133
*1191 FILLER_0_2_139
*1192 FILLER_0_2_141
*1193 FILLER_0_2_15
*1194 FILLER_0_2_153
*1195 FILLER_0_2_165
*1196 FILLER_0_2_177
*1197 FILLER_0_2_189
*1198 FILLER_0_2_195
*1199 FILLER_0_2_197
*1200 FILLER_0_2_209
*1201 FILLER_0_2_221
*1202 FILLER_0_2_233
*1203 FILLER_0_2_245
*1204 FILLER_0_2_251
*1205 FILLER_0_2_253
*1206 FILLER_0_2_265
*1207 FILLER_0_2_27
*1208 FILLER_0_2_277
*1209 FILLER_0_2_289
*1210 FILLER_0_2_29
*1211 FILLER_0_2_3
*1212 FILLER_0_2_301
*1213 FILLER_0_2_307
*1214 FILLER_0_2_309
*1215 FILLER_0_2_321
*1216 FILLER_0_2_333
*1217 FILLER_0_2_41
*1218 FILLER_0_2_53
*1219 FILLER_0_2_65
*1220 FILLER_0_2_77
*1221 FILLER_0_2_83
*1222 FILLER_0_2_85
*1223 FILLER_0_2_97
*1224 FILLER_0_30_129
*1225 FILLER_0_30_141
*1226 FILLER_0_30_159
*1227 FILLER_0_30_171
*1228 FILLER_0_30_175
*1229 FILLER_0_30_187
*1230 FILLER_0_30_213
*1231 FILLER_0_30_22
*1232 FILLER_0_30_231
*1233 FILLER_0_30_248
*1234 FILLER_0_30_253
*1235 FILLER_0_30_265
*1236 FILLER_0_30_269
*1237 FILLER_0_30_29
*1238 FILLER_0_30_3
*1239 FILLER_0_30_333
*1240 FILLER_0_30_48
*1241 FILLER_0_30_85
*1242 FILLER_0_31_102
*1243 FILLER_0_31_110
*1244 FILLER_0_31_137
*1245 FILLER_0_31_156
*1246 FILLER_0_31_166
*1247 FILLER_0_31_169
*1248 FILLER_0_31_181
*1249 FILLER_0_31_217
*1250 FILLER_0_31_223
*1251 FILLER_0_31_23
*1252 FILLER_0_31_257
*1253 FILLER_0_31_27
*1254 FILLER_0_31_277
*1255 FILLER_0_31_3
*1256 FILLER_0_31_311
*1257 FILLER_0_31_334
*1258 FILLER_0_31_52
*1259 FILLER_0_31_57
*1260 FILLER_0_31_65
*1261 FILLER_0_31_92
*1262 FILLER_0_32_106
*1263 FILLER_0_32_110
*1264 FILLER_0_32_135
*1265 FILLER_0_32_139
*1266 FILLER_0_32_141
*1267 FILLER_0_32_170
*1268 FILLER_0_32_192
*1269 FILLER_0_32_203
*1270 FILLER_0_32_22
*1271 FILLER_0_32_228
*1272 FILLER_0_32_253
*1273 FILLER_0_32_3
*1274 FILLER_0_32_303
*1275 FILLER_0_32_307
*1276 FILLER_0_32_317
*1277 FILLER_0_32_35
*1278 FILLER_0_32_47
*1279 FILLER_0_32_73
*1280 FILLER_0_32_85
*1281 FILLER_0_32_94
*1282 FILLER_0_33_141
*1283 FILLER_0_33_159
*1284 FILLER_0_33_167
*1285 FILLER_0_33_169
*1286 FILLER_0_33_181
*1287 FILLER_0_33_219
*1288 FILLER_0_33_223
*1289 FILLER_0_33_225
*1290 FILLER_0_33_229
*1291 FILLER_0_33_262
*1292 FILLER_0_33_266
*1293 FILLER_0_33_275
*1294 FILLER_0_33_279
*1295 FILLER_0_33_297
*1296 FILLER_0_33_3
*1297 FILLER_0_33_306
*1298 FILLER_0_33_334
*1299 FILLER_0_33_50
*1300 FILLER_0_33_57
*1301 FILLER_0_33_77
*1302 FILLER_0_33_89
*1303 FILLER_0_33_9
*1304 FILLER_0_33_95
*1305 FILLER_0_34_11
*1306 FILLER_0_34_135
*1307 FILLER_0_34_139
*1308 FILLER_0_34_147
*1309 FILLER_0_34_159
*1310 FILLER_0_34_165
*1311 FILLER_0_34_171
*1312 FILLER_0_34_183
*1313 FILLER_0_34_195
*1314 FILLER_0_34_211
*1315 FILLER_0_34_251
*1316 FILLER_0_34_299
*1317 FILLER_0_34_3
*1318 FILLER_0_34_309
*1319 FILLER_0_34_45
*1320 FILLER_0_34_53
*1321 FILLER_0_34_83
*1322 FILLER_0_34_85
*1323 FILLER_0_35_129
*1324 FILLER_0_35_133
*1325 FILLER_0_35_141
*1326 FILLER_0_35_192
*1327 FILLER_0_35_220
*1328 FILLER_0_35_257
*1329 FILLER_0_35_3
*1330 FILLER_0_35_305
*1331 FILLER_0_35_333
*1332 FILLER_0_35_52
*1333 FILLER_0_35_57
*1334 FILLER_0_35_74
*1335 FILLER_0_35_91
*1336 FILLER_0_35_95
*1337 FILLER_0_36_11
*1338 FILLER_0_36_119
*1339 FILLER_0_36_137
*1340 FILLER_0_36_157
*1341 FILLER_0_36_190
*1342 FILLER_0_36_197
*1343 FILLER_0_36_253
*1344 FILLER_0_36_3
*1345 FILLER_0_36_333
*1346 FILLER_0_36_48
*1347 FILLER_0_36_99
*1348 FILLER_0_37_113
*1349 FILLER_0_37_133
*1350 FILLER_0_37_15
*1351 FILLER_0_37_154
*1352 FILLER_0_37_19
*1353 FILLER_0_37_204
*1354 FILLER_0_37_210
*1355 FILLER_0_37_214
*1356 FILLER_0_37_223
*1357 FILLER_0_37_225
*1358 FILLER_0_37_263
*1359 FILLER_0_37_267
*1360 FILLER_0_37_279
*1361 FILLER_0_37_289
*1362 FILLER_0_37_293
*1363 FILLER_0_37_3
*1364 FILLER_0_37_334
*1365 FILLER_0_37_55
*1366 FILLER_0_37_57
*1367 FILLER_0_37_98
*1368 FILLER_0_38_10
*1369 FILLER_0_38_104
*1370 FILLER_0_38_14
*1371 FILLER_0_38_141
*1372 FILLER_0_38_152
*1373 FILLER_0_38_160
*1374 FILLER_0_38_175
*1375 FILLER_0_38_18
*1376 FILLER_0_38_183
*1377 FILLER_0_38_188
*1378 FILLER_0_38_197
*1379 FILLER_0_38_209
*1380 FILLER_0_38_215
*1381 FILLER_0_38_249
*1382 FILLER_0_38_277
*1383 FILLER_0_38_29
*1384 FILLER_0_38_333
*1385 FILLER_0_38_55
*1386 FILLER_0_38_6
*1387 FILLER_0_38_79
*1388 FILLER_0_3_105
*1389 FILLER_0_3_111
*1390 FILLER_0_3_113
*1391 FILLER_0_3_125
*1392 FILLER_0_3_137
*1393 FILLER_0_3_149
*1394 FILLER_0_3_15
*1395 FILLER_0_3_161
*1396 FILLER_0_3_167
*1397 FILLER_0_3_169
*1398 FILLER_0_3_181
*1399 FILLER_0_3_193
*1400 FILLER_0_3_205
*1401 FILLER_0_3_217
*1402 FILLER_0_3_223
*1403 FILLER_0_3_225
*1404 FILLER_0_3_237
*1405 FILLER_0_3_249
*1406 FILLER_0_3_261
*1407 FILLER_0_3_27
*1408 FILLER_0_3_273
*1409 FILLER_0_3_279
*1410 FILLER_0_3_281
*1411 FILLER_0_3_293
*1412 FILLER_0_3_3
*1413 FILLER_0_3_305
*1414 FILLER_0_3_317
*1415 FILLER_0_3_329
*1416 FILLER_0_3_39
*1417 FILLER_0_3_51
*1418 FILLER_0_3_55
*1419 FILLER_0_3_57
*1420 FILLER_0_3_69
*1421 FILLER_0_3_81
*1422 FILLER_0_3_93
*1423 FILLER_0_4_109
*1424 FILLER_0_4_121
*1425 FILLER_0_4_133
*1426 FILLER_0_4_139
*1427 FILLER_0_4_141
*1428 FILLER_0_4_15
*1429 FILLER_0_4_153
*1430 FILLER_0_4_165
*1431 FILLER_0_4_177
*1432 FILLER_0_4_189
*1433 FILLER_0_4_195
*1434 FILLER_0_4_197
*1435 FILLER_0_4_209
*1436 FILLER_0_4_221
*1437 FILLER_0_4_233
*1438 FILLER_0_4_245
*1439 FILLER_0_4_251
*1440 FILLER_0_4_253
*1441 FILLER_0_4_265
*1442 FILLER_0_4_27
*1443 FILLER_0_4_277
*1444 FILLER_0_4_289
*1445 FILLER_0_4_29
*1446 FILLER_0_4_3
*1447 FILLER_0_4_301
*1448 FILLER_0_4_307
*1449 FILLER_0_4_309
*1450 FILLER_0_4_321
*1451 FILLER_0_4_333
*1452 FILLER_0_4_41
*1453 FILLER_0_4_53
*1454 FILLER_0_4_65
*1455 FILLER_0_4_77
*1456 FILLER_0_4_83
*1457 FILLER_0_4_85
*1458 FILLER_0_4_97
*1459 FILLER_0_5_105
*1460 FILLER_0_5_111
*1461 FILLER_0_5_113
*1462 FILLER_0_5_125
*1463 FILLER_0_5_137
*1464 FILLER_0_5_149
*1465 FILLER_0_5_15
*1466 FILLER_0_5_161
*1467 FILLER_0_5_167
*1468 FILLER_0_5_169
*1469 FILLER_0_5_181
*1470 FILLER_0_5_193
*1471 FILLER_0_5_205
*1472 FILLER_0_5_217
*1473 FILLER_0_5_223
*1474 FILLER_0_5_225
*1475 FILLER_0_5_237
*1476 FILLER_0_5_249
*1477 FILLER_0_5_261
*1478 FILLER_0_5_27
*1479 FILLER_0_5_273
*1480 FILLER_0_5_279
*1481 FILLER_0_5_281
*1482 FILLER_0_5_293
*1483 FILLER_0_5_3
*1484 FILLER_0_5_305
*1485 FILLER_0_5_317
*1486 FILLER_0_5_329
*1487 FILLER_0_5_39
*1488 FILLER_0_5_51
*1489 FILLER_0_5_55
*1490 FILLER_0_5_57
*1491 FILLER_0_5_69
*1492 FILLER_0_5_81
*1493 FILLER_0_5_93
*1494 FILLER_0_6_109
*1495 FILLER_0_6_121
*1496 FILLER_0_6_133
*1497 FILLER_0_6_139
*1498 FILLER_0_6_141
*1499 FILLER_0_6_15
*1500 FILLER_0_6_153
*1501 FILLER_0_6_165
*1502 FILLER_0_6_177
*1503 FILLER_0_6_189
*1504 FILLER_0_6_195
*1505 FILLER_0_6_197
*1506 FILLER_0_6_209
*1507 FILLER_0_6_221
*1508 FILLER_0_6_233
*1509 FILLER_0_6_245
*1510 FILLER_0_6_251
*1511 FILLER_0_6_253
*1512 FILLER_0_6_265
*1513 FILLER_0_6_27
*1514 FILLER_0_6_277
*1515 FILLER_0_6_289
*1516 FILLER_0_6_29
*1517 FILLER_0_6_3
*1518 FILLER_0_6_301
*1519 FILLER_0_6_307
*1520 FILLER_0_6_309
*1521 FILLER_0_6_321
*1522 FILLER_0_6_333
*1523 FILLER_0_6_41
*1524 FILLER_0_6_53
*1525 FILLER_0_6_65
*1526 FILLER_0_6_77
*1527 FILLER_0_6_83
*1528 FILLER_0_6_85
*1529 FILLER_0_6_97
*1530 FILLER_0_7_108
*1531 FILLER_0_7_113
*1532 FILLER_0_7_125
*1533 FILLER_0_7_137
*1534 FILLER_0_7_149
*1535 FILLER_0_7_15
*1536 FILLER_0_7_161
*1537 FILLER_0_7_167
*1538 FILLER_0_7_169
*1539 FILLER_0_7_181
*1540 FILLER_0_7_193
*1541 FILLER_0_7_205
*1542 FILLER_0_7_217
*1543 FILLER_0_7_223
*1544 FILLER_0_7_239
*1545 FILLER_0_7_251
*1546 FILLER_0_7_265
*1547 FILLER_0_7_27
*1548 FILLER_0_7_277
*1549 FILLER_0_7_281
*1550 FILLER_0_7_293
*1551 FILLER_0_7_3
*1552 FILLER_0_7_305
*1553 FILLER_0_7_317
*1554 FILLER_0_7_329
*1555 FILLER_0_7_39
*1556 FILLER_0_7_51
*1557 FILLER_0_7_55
*1558 FILLER_0_7_57
*1559 FILLER_0_7_69
*1560 FILLER_0_7_77
*1561 FILLER_0_7_96
*1562 FILLER_0_8_109
*1563 FILLER_0_8_139
*1564 FILLER_0_8_147
*1565 FILLER_0_8_15
*1566 FILLER_0_8_159
*1567 FILLER_0_8_165
*1568 FILLER_0_8_174
*1569 FILLER_0_8_186
*1570 FILLER_0_8_194
*1571 FILLER_0_8_205
*1572 FILLER_0_8_215
*1573 FILLER_0_8_237
*1574 FILLER_0_8_248
*1575 FILLER_0_8_25
*1576 FILLER_0_8_269
*1577 FILLER_0_8_273
*1578 FILLER_0_8_282
*1579 FILLER_0_8_29
*1580 FILLER_0_8_294
*1581 FILLER_0_8_3
*1582 FILLER_0_8_306
*1583 FILLER_0_8_309
*1584 FILLER_0_8_321
*1585 FILLER_0_8_333
*1586 FILLER_0_8_41
*1587 FILLER_0_8_53
*1588 FILLER_0_8_65
*1589 FILLER_0_8_77
*1590 FILLER_0_8_83
*1591 FILLER_0_9_113
*1592 FILLER_0_9_162
*1593 FILLER_0_9_169
*1594 FILLER_0_9_173
*1595 FILLER_0_9_222
*1596 FILLER_0_9_27
*1597 FILLER_0_9_279
*1598 FILLER_0_9_297
*1599 FILLER_0_9_3
*1600 FILLER_0_9_309
*1601 FILLER_0_9_321
*1602 FILLER_0_9_333
*1603 FILLER_0_9_39
*1604 FILLER_0_9_51
*1605 FILLER_0_9_55
*1606 FILLER_0_9_65
*1607 FILLER_0_9_73
*1608 PHY_EDGE_ROW_0_Left_39
*1609 PHY_EDGE_ROW_0_Right_0
*1610 PHY_EDGE_ROW_10_Left_49
*1611 PHY_EDGE_ROW_10_Right_10
*1612 PHY_EDGE_ROW_11_Left_50
*1613 PHY_EDGE_ROW_11_Right_11
*1614 PHY_EDGE_ROW_12_Left_51
*1615 PHY_EDGE_ROW_12_Right_12
*1616 PHY_EDGE_ROW_13_Left_52
*1617 PHY_EDGE_ROW_13_Right_13
*1618 PHY_EDGE_ROW_14_Left_53
*1619 PHY_EDGE_ROW_14_Right_14
*1620 PHY_EDGE_ROW_15_Left_54
*1621 PHY_EDGE_ROW_15_Right_15
*1622 PHY_EDGE_ROW_16_Left_55
*1623 PHY_EDGE_ROW_16_Right_16
*1624 PHY_EDGE_ROW_17_Left_56
*1625 PHY_EDGE_ROW_17_Right_17
*1626 PHY_EDGE_ROW_18_Left_57
*1627 PHY_EDGE_ROW_18_Right_18
*1628 PHY_EDGE_ROW_19_Left_58