*SPEF "ieee 1481-1999"
*DESIGN "tt_um_wokwi_395514572866576385"
*DATE "18:13:50 Thursday April 18, 2024"
*VENDOR "The OpenROAD Project"
*PROGRAM "OpenROAD"
*VERSION "0889970d1790a2617e69f253221b8bd7626e51dc"
*DESIGN_FLOW "NAME_SCOPE LOCAL" "PIN_CAP NONE"
*DIVIDER /
*DELIMITER :
*BUS_DELIMITER []
*T_UNIT 1 NS
*C_UNIT 1 PF
*R_UNIT 1 OHM
*L_UNIT 1 HENRY

*NAME_MAP
*3 clk
*4 ena
*5 rst_n
*6 ui_in[0]
*7 ui_in[1]
*8 ui_in[2]
*9 ui_in[3]
*10 ui_in[4]
*11 ui_in[5]
*12 ui_in[6]
*13 ui_in[7]
*14 uio_in[0]
*15 uio_in[1]
*16 uio_in[2]
*17 uio_in[3]
*18 uio_in[4]
*19 uio_in[5]
*20 uio_in[6]
*21 uio_in[7]
*22 net13
*23 net14
*24 net15
*25 net16
*26 net17
*27 net18
*28 net19
*29 net20
*30 net21
*31 net22
*32 net23
*33 net24
*34 net25
*35 net26
*36 net27
*37 net28
*38 uo_out[0]
*39 uo_out[1]
*40 uo_out[2]
*41 uo_out[3]
*42 net9
*43 net10
*44 net11
*45 net12
*46 _00_
*47 _01_
*48 _02_
*49 _03_
*50 net1
*51 net2
*52 net3
*53 net4
*54 net5
*55 net6
*56 net7
*57 net8
*58 xor1\.out
*59 xor3\.out
*60 xor7\.out
*61 FILLER_0_0_109
*62 FILLER_0_0_113
*63 FILLER_0_0_125
*64 FILLER_0_0_137
*65 FILLER_0_0_141
*66 FILLER_0_0_15
*67 FILLER_0_0_153
*68 FILLER_0_0_165
*69 FILLER_0_0_169
*70 FILLER_0_0_181
*71 FILLER_0_0_193
*72 FILLER_0_0_197
*73 FILLER_0_0_209
*74 FILLER_0_0_221
*75 FILLER_0_0_225
*76 FILLER_0_0_237
*77 FILLER_0_0_249
*78 FILLER_0_0_253
*79 FILLER_0_0_265
*80 FILLER_0_0_27
*81 FILLER_0_0_277
*82 FILLER_0_0_281
*83 FILLER_0_0_29
*84 FILLER_0_0_293
*85 FILLER_0_0_3
*86 FILLER_0_0_305
*87 FILLER_0_0_309
*88 FILLER_0_0_321
*89 FILLER_0_0_333
*90 FILLER_0_0_41
*91 FILLER_0_0_53
*92 FILLER_0_0_57
*93 FILLER_0_0_69
*94 FILLER_0_0_81
*95 FILLER_0_0_85
*96 FILLER_0_0_97
*97 FILLER_0_10_109
*98 FILLER_0_10_121
*99 FILLER_0_10_133
*100 FILLER_0_10_139
*101 FILLER_0_10_141
*102 FILLER_0_10_15
*103 FILLER_0_10_153
*104 FILLER_0_10_165
*105 FILLER_0_10_177
*106 FILLER_0_10_189
*107 FILLER_0_10_195
*108 FILLER_0_10_197
*109 FILLER_0_10_209
*110 FILLER_0_10_221
*111 FILLER_0_10_233
*112 FILLER_0_10_245
*113 FILLER_0_10_251
*114 FILLER_0_10_253
*115 FILLER_0_10_265
*116 FILLER_0_10_27
*117 FILLER_0_10_277
*118 FILLER_0_10_289
*119 FILLER_0_10_29
*120 FILLER_0_10_3
*121 FILLER_0_10_301
*122 FILLER_0_10_307
*123 FILLER_0_10_309
*124 FILLER_0_10_321
*125 FILLER_0_10_333
*126 FILLER_0_10_41
*127 FILLER_0_10_53
*128 FILLER_0_10_65
*129 FILLER_0_10_77
*130 FILLER_0_10_83
*131 FILLER_0_10_85
*132 FILLER_0_10_97
*133 FILLER_0_11_105
*134 FILLER_0_11_111
*135 FILLER_0_11_113
*136 FILLER_0_11_125
*137 FILLER_0_11_137
*138 FILLER_0_11_149
*139 FILLER_0_11_15
*140 FILLER_0_11_161
*141 FILLER_0_11_167
*142 FILLER_0_11_169
*143 FILLER_0_11_181
*144 FILLER_0_11_193
*145 FILLER_0_11_205
*146 FILLER_0_11_217
*147 FILLER_0_11_223
*148 FILLER_0_11_225
*149 FILLER_0_11_237
*150 FILLER_0_11_249
*151 FILLER_0_11_261
*152 FILLER_0_11_27
*153 FILLER_0_11_273
*154 FILLER_0_11_279
*155 FILLER_0_11_281
*156 FILLER_0_11_293
*157 FILLER_0_11_3
*158 FILLER_0_11_305
*159 FILLER_0_11_317
*160 FILLER_0_11_329
*161 FILLER_0_11_39
*162 FILLER_0_11_51
*163 FILLER_0_11_55
*164 FILLER_0_11_57
*165 FILLER_0_11_69
*166 FILLER_0_11_81
*167 FILLER_0_11_93
*168 FILLER_0_12_109
*169 FILLER_0_12_121
*170 FILLER_0_12_133
*171 FILLER_0_12_139
*172 FILLER_0_12_141
*173 FILLER_0_12_15
*174 FILLER_0_12_153
*175 FILLER_0_12_165
*176 FILLER_0_12_177
*177 FILLER_0_12_189
*178 FILLER_0_12_195
*179 FILLER_0_12_197
*180 FILLER_0_12_209
*181 FILLER_0_12_221
*182 FILLER_0_12_233
*183 FILLER_0_12_245
*184 FILLER_0_12_251
*185 FILLER_0_12_253
*186 FILLER_0_12_265
*187 FILLER_0_12_27
*188 FILLER_0_12_277
*189 FILLER_0_12_289
*190 FILLER_0_12_29
*191 FILLER_0_12_3
*192 FILLER_0_12_301
*193 FILLER_0_12_307
*194 FILLER_0_12_309
*195 FILLER_0_12_321
*196 FILLER_0_12_333
*197 FILLER_0_12_41
*198 FILLER_0_12_53
*199 FILLER_0_12_65
*200 FILLER_0_12_77
*201 FILLER_0_12_83
*202 FILLER_0_12_85
*203 FILLER_0_12_97
*204 FILLER_0_13_105
*205 FILLER_0_13_111
*206 FILLER_0_13_113
*207 FILLER_0_13_125
*208 FILLER_0_13_137
*209 FILLER_0_13_149
*210 FILLER_0_13_15
*211 FILLER_0_13_161
*212 FILLER_0_13_167
*213 FILLER_0_13_169
*214 FILLER_0_13_181
*215 FILLER_0_13_193
*216 FILLER_0_13_205
*217 FILLER_0_13_217
*218 FILLER_0_13_223
*219 FILLER_0_13_225
*220 FILLER_0_13_237
*221 FILLER_0_13_249
*222 FILLER_0_13_261
*223 FILLER_0_13_27
*224 FILLER_0_13_273
*225 FILLER_0_13_279
*226 FILLER_0_13_281
*227 FILLER_0_13_293
*228 FILLER_0_13_3
*229 FILLER_0_13_305
*230 FILLER_0_13_317
*231 FILLER_0_13_329
*232 FILLER_0_13_39
*233 FILLER_0_13_51
*234 FILLER_0_13_55
*235 FILLER_0_13_57
*236 FILLER_0_13_69
*237 FILLER_0_13_81
*238 FILLER_0_13_93
*239 FILLER_0_14_109
*240 FILLER_0_14_121
*241 FILLER_0_14_133
*242 FILLER_0_14_139
*243 FILLER_0_14_141
*244 FILLER_0_14_15
*245 FILLER_0_14_153
*246 FILLER_0_14_165
*247 FILLER_0_14_177
*248 FILLER_0_14_189
*249 FILLER_0_14_195
*250 FILLER_0_14_197
*251 FILLER_0_14_209
*252 FILLER_0_14_221
*253 FILLER_0_14_233
*254 FILLER_0_14_245
*255 FILLER_0_14_251
*256 FILLER_0_14_253
*257 FILLER_0_14_265
*258 FILLER_0_14_27
*259 FILLER_0_14_277
*260 FILLER_0_14_289
*261 FILLER_0_14_29
*262 FILLER_0_14_3
*263 FILLER_0_14_301
*264 FILLER_0_14_307
*265 FILLER_0_14_309
*266 FILLER_0_14_321
*267 FILLER_0_14_333
*268 FILLER_0_14_41
*269 FILLER_0_14_53
*270 FILLER_0_14_65
*271 FILLER_0_14_77
*272 FILLER_0_14_83
*273 FILLER_0_14_85
*274 FILLER_0_14_97
*275 FILLER_0_15_105
*276 FILLER_0_15_111
*277 FILLER_0_15_113
*278 FILLER_0_15_125
*279 FILLER_0_15_137
*280 FILLER_0_15_149
*281 FILLER_0_15_15
*282 FILLER_0_15_161
*283 FILLER_0_15_167
*284 FILLER_0_15_169
*285 FILLER_0_15_181
*286 FILLER_0_15_193
*287 FILLER_0_15_205
*288 FILLER_0_15_217
*289 FILLER_0_15_223
*290 FILLER_0_15_225
*291 FILLER_0_15_237
*292 FILLER_0_15_249
*293 FILLER_0_15_261
*294 FILLER_0_15_27
*295 FILLER_0_15_273
*296 FILLER_0_15_279
*297 FILLER_0_15_281
*298 FILLER_0_15_293
*299 FILLER_0_15_3
*300 FILLER_0_15_305
*301 FILLER_0_15_317
*302 FILLER_0_15_329
*303 FILLER_0_15_39
*304 FILLER_0_15_51
*305 FILLER_0_15_55
*306 FILLER_0_15_57
*307 FILLER_0_15_69
*308 FILLER_0_15_81
*309 FILLER_0_15_93
*310 FILLER_0_16_109
*311 FILLER_0_16_121
*312 FILLER_0_16_133
*313 FILLER_0_16_139
*314 FILLER_0_16_141
*315 FILLER_0_16_15
*316 FILLER_0_16_153
*317 FILLER_0_16_165
*318 FILLER_0_16_177
*319 FILLER_0_16_189
*320 FILLER_0_16_195
*321 FILLER_0_16_197
*322 FILLER_0_16_209
*323 FILLER_0_16_221
*324 FILLER_0_16_233
*325 FILLER_0_16_245
*326 FILLER_0_16_251
*327 FILLER_0_16_253
*328 FILLER_0_16_265
*329 FILLER_0_16_27
*330 FILLER_0_16_277
*331 FILLER_0_16_289
*332 FILLER_0_16_29
*333 FILLER_0_16_3
*334 FILLER_0_16_301
*335 FILLER_0_16_307
*336 FILLER_0_16_309
*337 FILLER_0_16_321
*338 FILLER_0_16_333
*339 FILLER_0_16_41
*340 FILLER_0_16_53
*341 FILLER_0_16_65
*342 FILLER_0_16_77
*343 FILLER_0_16_83
*344 FILLER_0_16_85
*345 FILLER_0_16_97
*346 FILLER_0_17_105
*347 FILLER_0_17_111
*348 FILLER_0_17_113
*349 FILLER_0_17_125
*350 FILLER_0_17_137
*351 FILLER_0_17_149
*352 FILLER_0_17_15
*353 FILLER_0_17_161
*354 FILLER_0_17_167
*355 FILLER_0_17_169
*356 FILLER_0_17_181
*357 FILLER_0_17_193
*358 FILLER_0_17_205
*359 FILLER_0_17_217
*360 FILLER_0_17_223
*361 FILLER_0_17_225
*362 FILLER_0_17_237
*363 FILLER_0_17_249
*364 FILLER_0_17_261
*365 FILLER_0_17_27
*366 FILLER_0_17_273
*367 FILLER_0_17_279
*368 FILLER_0_17_281
*369 FILLER_0_17_293
*370 FILLER_0_17_3
*371 FILLER_0_17_305
*372 FILLER_0_17_317
*373 FILLER_0_17_329
*374 FILLER_0_17_39
*375 FILLER_0_17_51
*376 FILLER_0_17_55
*377 FILLER_0_17_57
*378 FILLER_0_17_69
*379 FILLER_0_17_81
*380 FILLER_0_17_93
*381 FILLER_0_18_109
*382 FILLER_0_18_121
*383 FILLER_0_18_133
*384 FILLER_0_18_139
*385 FILLER_0_18_141
*386 FILLER_0_18_15
*387 FILLER_0_18_153
*388 FILLER_0_18_165
*389 FILLER_0_18_177
*390 FILLER_0_18_189
*391 FILLER_0_18_195
*392 FILLER_0_18_197
*393 FILLER_0_18_209
*394 FILLER_0_18_221
*395 FILLER_0_18_233
*396 FILLER_0_18_245
*397 FILLER_0_18_251
*398 FILLER_0_18_253
*399 FILLER_0_18_265
*400 FILLER_0_18_27
*401 FILLER_0_18_277
*402 FILLER_0_18_289
*403 FILLER_0_18_29
*404 FILLER_0_18_3
*405 FILLER_0_18_301
*406 FILLER_0_18_307
*407 FILLER_0_18_309
*408 FILLER_0_18_321
*409 FILLER_0_18_333
*410 FILLER_0_18_41
*411 FILLER_0_18_53
*412 FILLER_0_18_65
*413 FILLER_0_18_77
*414 FILLER_0_18_83
*415 FILLER_0_18_85
*416 FILLER_0_18_97
*417 FILLER_0_19_105
*418 FILLER_0_19_111
*419 FILLER_0_19_113
*420 FILLER_0_19_125
*421 FILLER_0_19_137
*422 FILLER_0_19_149
*423 FILLER_0_19_15
*424 FILLER_0_19_161
*425 FILLER_0_19_167
*426 FILLER_0_19_169
*427 FILLER_0_19_181
*428 FILLER_0_19_193
*429 FILLER_0_19_205
*430 FILLER_0_19_217
*431 FILLER_0_19_223
*432 FILLER_0_19_225
*433 FILLER_0_19_237
*434 FILLER_0_19_249
*435 FILLER_0_19_261
*436 FILLER_0_19_27
*437 FILLER_0_19_273
*438 FILLER_0_19_279
*439 FILLER_0_19_281
*440 FILLER_0_19_293
*441 FILLER_0_19_3
*442 FILLER_0_19_305
*443 FILLER_0_19_317
*444 FILLER_0_19_329
*445 FILLER_0_19_39
*446 FILLER_0_19_51
*447 FILLER_0_19_55
*448 FILLER_0_19_57
*449 FILLER_0_19_69
*450 FILLER_0_19_81
*451 FILLER_0_19_93
*452 FILLER_0_1_105
*453 FILLER_0_1_111
*454 FILLER_0_1_113
*455 FILLER_0_1_125
*456 FILLER_0_1_137
*457 FILLER_0_1_149
*458 FILLER_0_1_15
*459 FILLER_0_1_161
*460 FILLER_0_1_167
*461 FILLER_0_1_169
*462 FILLER_0_1_181
*463 FILLER_0_1_193
*464 FILLER_0_1_205
*465 FILLER_0_1_217
*466 FILLER_0_1_223
*467 FILLER_0_1_225
*468 FILLER_0_1_237
*469 FILLER_0_1_249
*470 FILLER_0_1_261
*471 FILLER_0_1_27
*472 FILLER_0_1_273
*473 FILLER_0_1_279
*474 FILLER_0_1_281
*475 FILLER_0_1_293
*476 FILLER_0_1_3
*477 FILLER_0_1_305
*478 FILLER_0_1_317
*479 FILLER_0_1_329
*480 FILLER_0_1_39
*481 FILLER_0_1_51
*482 FILLER_0_1_55
*483 FILLER_0_1_57
*484 FILLER_0_1_69
*485 FILLER_0_1_81
*486 FILLER_0_1_93
*487 FILLER_0_20_109
*488 FILLER_0_20_121
*489 FILLER_0_20_133
*490 FILLER_0_20_139
*491 FILLER_0_20_141
*492 FILLER_0_20_15
*493 FILLER_0_20_153
*494 FILLER_0_20_165
*495 FILLER_0_20_177
*496 FILLER_0_20_189
*497 FILLER_0_20_195
*498 FILLER_0_20_197
*499 FILLER_0_20_209
*500 FILLER_0_20_221
*501 FILLER_0_20_233
*502 FILLER_0_20_245
*503 FILLER_0_20_251
*504 FILLER_0_20_253
*505 FILLER_0_20_265
*506 FILLER_0_20_27
*507 FILLER_0_20_277
*508 FILLER_0_20_289
*509 FILLER_0_20_29
*510 FILLER_0_20_3
*511 FILLER_0_20_301
*512 FILLER_0_20_307
*513 FILLER_0_20_309
*514 FILLER_0_20_321
*515 FILLER_0_20_333
*516 FILLER_0_20_41
*517 FILLER_0_20_53
*518 FILLER_0_20_65
*519 FILLER_0_20_77
*520 FILLER_0_20_83
*521 FILLER_0_20_85
*522 FILLER_0_20_97
*523 FILLER_0_21_105
*524 FILLER_0_21_111
*525 FILLER_0_21_113
*526 FILLER_0_21_125
*527 FILLER_0_21_137
*528 FILLER_0_21_149
*529 FILLER_0_21_15
*530 FILLER_0_21_161
*531 FILLER_0_21_167
*532 FILLER_0_21_169
*533 FILLER_0_21_181
*534 FILLER_0_21_193
*535 FILLER_0_21_205
*536 FILLER_0_21_217
*537 FILLER_0_21_223
*538 FILLER_0_21_225
*539 FILLER_0_21_237
*540 FILLER_0_21_249
*541 FILLER_0_21_261
*542 FILLER_0_21_27
*543 FILLER_0_21_273
*544 FILLER_0_21_279
*545 FILLER_0_21_281
*546 FILLER_0_21_293
*547 FILLER_0_21_3
*548 FILLER_0_21_305
*549 FILLER_0_21_317
*550 FILLER_0_21_329
*551 FILLER_0_21_39
*552 FILLER_0_21_51
*553 FILLER_0_21_55
*554 FILLER_0_21_57
*555 FILLER_0_21_69
*556 FILLER_0_21_81
*557 FILLER_0_21_93
*558 FILLER_0_22_109
*559 FILLER_0_22_121
*560 FILLER_0_22_133
*561 FILLER_0_22_139
*562 FILLER_0_22_141
*563 FILLER_0_22_15
*564 FILLER_0_22_153
*565 FILLER_0_22_165
*566 FILLER_0_22_177
*567 FILLER_0_22_189
*568 FILLER_0_22_195
*569 FILLER_0_22_197
*570 FILLER_0_22_209
*571 FILLER_0_22_221
*572 FILLER_0_22_233
*573 FILLER_0_22_245
*574 FILLER_0_22_251
*575 FILLER_0_22_253
*576 FILLER_0_22_265
*577 FILLER_0_22_27
*578 FILLER_0_22_277
*579 FILLER_0_22_289
*580 FILLER_0_22_29
*581 FILLER_0_22_3
*582 FILLER_0_22_301
*583 FILLER_0_22_307
*584 FILLER_0_22_309
*585 FILLER_0_22_321
*586 FILLER_0_22_333
*587 FILLER_0_22_41
*588 FILLER_0_22_53
*589 FILLER_0_22_65
*590 FILLER_0_22_77
*591 FILLER_0_22_83
*592 FILLER_0_22_85
*593 FILLER_0_22_97
*594 FILLER_0_23_105
*595 FILLER_0_23_111
*596 FILLER_0_23_113
*597 FILLER_0_23_125
*598 FILLER_0_23_137
*599 FILLER_0_23_149
*600 FILLER_0_23_15
*601 FILLER_0_23_161
*602 FILLER_0_23_167
*603 FILLER_0_23_169
*604 FILLER_0_23_181
*605 FILLER_0_23_193
*606 FILLER_0_23_205
*607 FILLER_0_23_217
*608 FILLER_0_23_223
*609 FILLER_0_23_225
*610 FILLER_0_23_237
*611 FILLER_0_23_249
*612 FILLER_0_23_261
*613 FILLER_0_23_27
*614 FILLER_0_23_273
*615 FILLER_0_23_279
*616 FILLER_0_23_281
*617 FILLER_0_23_293
*618 FILLER_0_23_3
*619 FILLER_0_23_305
*620 FILLER_0_23_317
*621 FILLER_0_23_329
*622 FILLER_0_23_39
*623 FILLER_0_23_51
*624 FILLER_0_23_55
*625 FILLER_0_23_57
*626 FILLER_0_23_69
*627 FILLER_0_23_81
*628 FILLER_0_23_93
*629 FILLER_0_24_109
*630 FILLER_0_24_121
*631 FILLER_0_24_133
*632 FILLER_0_24_139
*633 FILLER_0_24_141
*634 FILLER_0_24_15
*635 FILLER_0_24_153
*636 FILLER_0_24_165
*637 FILLER_0_24_177
*638 FILLER_0_24_189
*639 FILLER_0_24_195
*640 FILLER_0_24_197
*641 FILLER_0_24_209
*642 FILLER_0_24_221
*643 FILLER_0_24_233
*644 FILLER_0_24_245
*645 FILLER_0_24_251
*646 FILLER_0_24_253
*647 FILLER_0_24_265
*648 FILLER_0_24_27
*649 FILLER_0_24_277
*650 FILLER_0_24_289
*651 FILLER_0_24_29
*652 FILLER_0_24_3
*653 FILLER_0_24_301
*654 FILLER_0_24_307
*655 FILLER_0_24_309
*656 FILLER_0_24_321
*657 FILLER_0_24_333
*658 FILLER_0_24_41
*659 FILLER_0_24_53
*660 FILLER_0_24_65
*661 FILLER_0_24_77
*662 FILLER_0_24_83
*663 FILLER_0_24_85
*664 FILLER_0_24_97
*665 FILLER_0_25_105
*666 FILLER_0_25_111
*667 FILLER_0_25_113
*668 FILLER_0_25_125
*669 FILLER_0_25_137
*670 FILLER_0_25_149
*671 FILLER_0_25_15
*672 FILLER_0_25_161
*673 FILLER_0_25_167
*674 FILLER_0_25_169
*675 FILLER_0_25_181
*676 FILLER_0_25_193
*677 FILLER_0_25_205
*678 FILLER_0_25_217
*679 FILLER_0_25_223
*680 FILLER_0_25_225
*681 FILLER_0_25_237
*682 FILLER_0_25_249
*683 FILLER_0_25_261
*684 FILLER_0_25_27
*685 FILLER_0_25_273
*686 FILLER_0_25_279
*687 FILLER_0_25_281
*688 FILLER_0_25_293
*689 FILLER_0_25_3
*690 FILLER_0_25_305
*691 FILLER_0_25_317
*692 FILLER_0_25_329
*693 FILLER_0_25_39
*694 FILLER_0_25_51
*695 FILLER_0_25_55
*696 FILLER_0_25_57
*697 FILLER_0_25_69
*698 FILLER_0_25_81
*699 FILLER_0_25_93
*700 FILLER_0_26_109
*701 FILLER_0_26_121
*702 FILLER_0_26_133
*703 FILLER_0_26_139
*704 FILLER_0_26_141
*705 FILLER_0_26_15
*706 FILLER_0_26_153
*707 FILLER_0_26_165
*708 FILLER_0_26_177
*709 FILLER_0_26_189
*710 FILLER_0_26_195
*711 FILLER_0_26_197
*712 FILLER_0_26_209
*713 FILLER_0_26_221
*714 FILLER_0_26_233
*715 FILLER_0_26_245
*716 FILLER_0_26_251
*717 FILLER_0_26_253
*718 FILLER_0_26_265
*719 FILLER_0_26_27
*720 FILLER_0_26_277
*721 FILLER_0_26_289
*722 FILLER_0_26_29
*723 FILLER_0_26_3
*724 FILLER_0_26_301
*725 FILLER_0_26_307
*726 FILLER_0_26_309
*727 FILLER_0_26_321
*728 FILLER_0_26_333
*729 FILLER_0_26_41
*730 FILLER_0_26_53
*731 FILLER_0_26_65
*732 FILLER_0_26_77
*733 FILLER_0_26_83
*734 FILLER_0_26_85
*735 FILLER_0_26_97
*736 FILLER_0_27_105
*737 FILLER_0_27_111
*738 FILLER_0_27_113
*739 FILLER_0_27_125
*740 FILLER_0_27_137
*741 FILLER_0_27_149
*742 FILLER_0_27_15
*743 FILLER_0_27_161
*744 FILLER_0_27_167
*745 FILLER_0_27_169
*746 FILLER_0_27_181
*747 FILLER_0_27_193
*748 FILLER_0_27_205
*749 FILLER_0_27_217
*750 FILLER_0_27_223
*751 FILLER_0_27_225
*752 FILLER_0_27_237
*753 FILLER_0_27_249
*754 FILLER_0_27_261
*755 FILLER_0_27_27
*756 FILLER_0_27_273
*757 FILLER_0_27_279
*758 FILLER_0_27_281
*759 FILLER_0_27_293
*760 FILLER_0_27_3
*761 FILLER_0_27_305
*762 FILLER_0_27_317
*763 FILLER_0_27_329
*764 FILLER_0_27_39
*765 FILLER_0_27_51
*766 FILLER_0_27_55
*767 FILLER_0_27_57
*768 FILLER_0_27_69
*769 FILLER_0_27_81
*770 FILLER_0_27_93
*771 FILLER_0_28_109
*772 FILLER_0_28_121
*773 FILLER_0_28_133
*774 FILLER_0_28_139
*775 FILLER_0_28_141
*776 FILLER_0_28_15
*777 FILLER_0_28_153
*778 FILLER_0_28_165
*779 FILLER_0_28_177
*780 FILLER_0_28_189
*781 FILLER_0_28_195
*782 FILLER_0_28_197
*783 FILLER_0_28_209
*784 FILLER_0_28_221
*785 FILLER_0_28_233
*786 FILLER_0_28_245
*787 FILLER_0_28_251
*788 FILLER_0_28_253
*789 FILLER_0_28_265
*790 FILLER_0_28_27
*791 FILLER_0_28_277
*792 FILLER_0_28_289
*793 FILLER_0_28_29
*794 FILLER_0_28_3
*795 FILLER_0_28_301
*796 FILLER_0_28_307
*797 FILLER_0_28_309
*798 FILLER_0_28_321
*799 FILLER_0_28_333
*800 FILLER_0_28_41
*801 FILLER_0_28_53
*802 FILLER_0_28_65
*803 FILLER_0_28_77
*804 FILLER_0_28_83
*805 FILLER_0_28_85
*806 FILLER_0_28_97
*807 FILLER_0_29_105
*808 FILLER_0_29_111
*809 FILLER_0_29_113
*810 FILLER_0_29_125
*811 FILLER_0_29_137
*812 FILLER_0_29_149
*813 FILLER_0_29_15
*814 FILLER_0_29_161
*815 FILLER_0_29_167
*816 FILLER_0_29_169
*817 FILLER_0_29_181
*818 FILLER_0_29_193
*819 FILLER_0_29_205
*820 FILLER_0_29_217
*821 FILLER_0_29_223
*822 FILLER_0_29_225
*823 FILLER_0_29_237
*824 FILLER_0_29_249
*825 FILLER_0_29_261
*826 FILLER_0_29_27
*827 FILLER_0_29_273
*828 FILLER_0_29_279
*829 FILLER_0_29_281
*830 FILLER_0_29_293
*831 FILLER_0_29_3
*832 FILLER_0_29_305
*833 FILLER_0_29_317
*834 FILLER_0_29_329
*835 FILLER_0_29_39
*836 FILLER_0_29_51
*837 FILLER_0_29_55
*838 FILLER_0_29_57
*839 FILLER_0_29_69
*840 FILLER_0_29_81
*841 FILLER_0_29_93
*842 FILLER_0_2_109
*843 FILLER_0_2_121
*844 FILLER_0_2_133
*845 FILLER_0_2_139
*846 FILLER_0_2_141
*847 FILLER_0_2_15
*848 FILLER_0_2_153
*849 FILLER_0_2_165
*850 FILLER_0_2_177
*851 FILLER_0_2_189
*852 FILLER_0_2_195
*853 FILLER_0_2_197
*854 FILLER_0_2_209
*855 FILLER_0_2_221
*856 FILLER_0_2_233
*857 FILLER_0_2_245
*858 FILLER_0_2_251
*859 FILLER_0_2_253
*860 FILLER_0_2_265
*861 FILLER_0_2_27
*862 FILLER_0_2_277
*863 FILLER_0_2_289
*864 FILLER_0_2_29
*865 FILLER_0_2_3
*866 FILLER_0_2_301
*867 FILLER_0_2_307
*868 FILLER_0_2_309
*869 FILLER_0_2_321
*870 FILLER_0_2_333
*871 FILLER_0_2_41
*872 FILLER_0_2_53
*873 FILLER_0_2_65
*874 FILLER_0_2_77
*875 FILLER_0_2_83
*876 FILLER_0_2_85
*877 FILLER_0_2_97
*878 FILLER_0_30_109
*879 FILLER_0_30_121
*880 FILLER_0_30_133
*881 FILLER_0_30_139
*882 FILLER_0_30_141
*883 FILLER_0_30_15
*884 FILLER_0_30_153
*885 FILLER_0_30_165
*886 FILLER_0_30_177
*887 FILLER_0_30_189
*888 FILLER_0_30_195
*889 FILLER_0_30_197
*890 FILLER_0_30_209
*891 FILLER_0_30_221
*892 FILLER_0_30_233
*893 FILLER_0_30_245
*894 FILLER_0_30_251
*895 FILLER_0_30_253
*896 FILLER_0_30_265
*897 FILLER_0_30_27
*898 FILLER_0_30_277
*899 FILLER_0_30_289
*900 FILLER_0_30_29
*901 FILLER_0_30_3
*902 FILLER_0_30_301
*903 FILLER_0_30_307
*904 FILLER_0_30_309
*905 FILLER_0_30_321
*906 FILLER_0_30_333
*907 FILLER_0_30_41
*908 FILLER_0_30_53
*909 FILLER_0_30_65
*910 FILLER_0_30_77
*911 FILLER_0_30_83
*912 FILLER_0_30_85
*913 FILLER_0_30_97
*914 FILLER_0_31_105
*915 FILLER_0_31_111
*916 FILLER_0_31_113
*917 FILLER_0_31_125
*918 FILLER_0_31_137
*919 FILLER_0_31_149
*920 FILLER_0_31_15
*921 FILLER_0_31_161
*922 FILLER_0_31_167
*923 FILLER_0_31_169
*924 FILLER_0_31_181
*925 FILLER_0_31_193
*926 FILLER_0_31_205
*927 FILLER_0_31_217
*928 FILLER_0_31_223
*929 FILLER_0_31_225
*930 FILLER_0_31_237
*931 FILLER_0_31_249
*932 FILLER_0_31_261
*933 FILLER_0_31_27
*934 FILLER_0_31_273
*935 FILLER_0_31_279
*936 FILLER_0_31_281
*937 FILLER_0_31_293
*938 FILLER_0_31_3
*939 FILLER_0_31_305
*940 FILLER_0_31_317
*941 FILLER_0_31_329
*942 FILLER_0_31_39
*943 FILLER_0_31_51
*944 FILLER_0_31_55
*945 FILLER_0_31_57
*946 FILLER_0_31_69
*947 FILLER_0_31_81
*948 FILLER_0_31_93
*949 FILLER_0_32_109
*950 FILLER_0_32_121
*951 FILLER_0_32_133
*952 FILLER_0_32_139
*953 FILLER_0_32_141
*954 FILLER_0_32_15
*955 FILLER_0_32_153
*956 FILLER_0_32_165
*957 FILLER_0_32_177
*958 FILLER_0_32_189
*959 FILLER_0_32_195
*960 FILLER_0_32_197
*961 FILLER_0_32_209
*962 FILLER_0_32_221
*963 FILLER_0_32_233
*964 FILLER_0_32_245
*965 FILLER_0_32_251
*966 FILLER_0_32_253
*967 FILLER_0_32_265
*968 FILLER_0_32_27
*969 FILLER_0_32_277
*970 FILLER_0_32_289
*971 FILLER_0_32_29
*972 FILLER_0_32_3
*973 FILLER_0_32_301
*974 FILLER_0_32_307
*975 FILLER_0_32_309
*976 FILLER_0_32_321
*977 FILLER_0_32_333
*978 FILLER_0_32_41
*979 FILLER_0_32_53
*980 FILLER_0_32_65
*981 FILLER_0_32_77
*982 FILLER_0_32_83
*983 FILLER_0_32_85
*984 FILLER_0_32_97
*985 FILLER_0_33_105
*986 FILLER_0_33_111
*987 FILLER_0_33_113
*988 FILLER_0_33_125
*989 FILLER_0_33_137
*990 FILLER_0_33_149
*991 FILLER_0_33_15
*992 FILLER_0_33_161
*993 FILLER_0_33_167
*994 FILLER_0_33_169
*995 FILLER_0_33_181
*996 FILLER_0_33_193
*997 FILLER_0_33_205
*998 FILLER_0_33_217
*999 FILLER_0_33_223
*1000 FILLER_0_33_225
*1001 FILLER_0_33_237
*1002 FILLER_0_33_249
*1003 FILLER_0_33_261
*1004 FILLER_0_33_27
*1005 FILLER_0_33_273
*1006 FILLER_0_33_279
*1007 FILLER_0_33_281
*1008 FILLER_0_33_293
*1009 FILLER_0_33_3
*1010 FILLER_0_33_305
*1011 FILLER_0_33_317
*1012 FILLER_0_33_329
*1013 FILLER_0_33_39
*1014 FILLER_0_33_51
*1015 FILLER_0_33_55
*1016 FILLER_0_33_57
*1017 FILLER_0_33_69
*1018 FILLER_0_33_81
*1019 FILLER_0_33_93
*1020 FILLER_0_34_109
*1021 FILLER_0_34_121
*1022 FILLER_0_34_133
*1023 FILLER_0_34_139
*1024 FILLER_0_34_141
*1025 FILLER_0_34_15
*1026 FILLER_0_34_153
*1027 FILLER_0_34_165
*1028 FILLER_0_34_177
*1029 FILLER_0_34_189
*1030 FILLER_0_34_195
*1031 FILLER_0_34_197
*1032 FILLER_0_34_209
*1033 FILLER_0_34_221
*1034 FILLER_0_34_233
*1035 FILLER_0_34_245
*1036 FILLER_0_34_251
*1037 FILLER_0_34_253
*1038 FILLER_0_34_265
*1039 FILLER_0_34_27
*1040 FILLER_0_34_277
*1041 FILLER_0_34_289
*1042 FILLER_0_34_29
*1043 FILLER_0_34_3
*1044 FILLER_0_34_301
*1045 FILLER_0_34_307
*1046 FILLER_0_34_309
*1047 FILLER_0_34_321
*1048 FILLER_0_34_333
*1049 FILLER_0_34_41
*1050 FILLER_0_34_53
*1051 FILLER_0_34_65
*1052 FILLER_0_34_77
*1053 FILLER_0_34_83
*1054 FILLER_0_34_85
*1055 FILLER_0_34_97
*1056 FILLER_0_35_105
*1057 FILLER_0_35_111
*1058 FILLER_0_35_113
*1059 FILLER_0_35_125
*1060 FILLER_0_35_137
*1061 FILLER_0_35_149
*1062 FILLER_0_35_15
*1063 FILLER_0_35_161
*1064 FILLER_0_35_167
*1065 FILLER_0_35_169
*1066 FILLER_0_35_181
*1067 FILLER_0_35_193
*1068 FILLER_0_35_205
*1069 FILLER_0_35_217
*1070 FILLER_0_35_223
*1071 FILLER_0_35_225
*1072 FILLER_0_35_237
*1073 FILLER_0_35_249
*1074 FILLER_0_35_261
*1075 FILLER_0_35_27
*1076 FILLER_0_35_273
*1077 FILLER_0_35_279
*1078 FILLER_0_35_281
*1079 FILLER_0_35_293
*1080 FILLER_0_35_3
*1081 FILLER_0_35_305
*1082 FILLER_0_35_317
*1083 FILLER_0_35_329
*1084 FILLER_0_35_39
*1085 FILLER_0_35_51
*1086 FILLER_0_35_55
*1087 FILLER_0_35_57
*1088 FILLER_0_35_69
*1089 FILLER_0_35_81
*1090 FILLER_0_35_93
*1091 FILLER_0_36_109
*1092 FILLER_0_36_121
*1093 FILLER_0_36_133
*1094 FILLER_0_36_139
*1095 FILLER_0_36_141
*1096 FILLER_0_36_15
*1097 FILLER_0_36_153
*1098 FILLER_0_36_165
*1099 FILLER_0_36_177
*1100 FILLER_0_36_189
*1101 FILLER_0_36_195
*1102 FILLER_0_36_197
*1103 FILLER_0_36_209
*1104 FILLER_0_36_221
*1105 FILLER_0_36_233
*1106 FILLER_0_36_245
*1107 FILLER_0_36_251
*1108 FILLER_0_36_253
*1109 FILLER_0_36_265
*1110 FILLER_0_36_27
*1111 FILLER_0_36_277
*1112 FILLER_0_36_289
*1113 FILLER_0_36_29
*1114 FILLER_0_36_3
*1115 FILLER_0_36_301
*1116 FILLER_0_36_307
*1117 FILLER_0_36_309
*1118 FILLER_0_36_321
*1119 FILLER_0_36_333
*1120 FILLER_0_36_41
*1121 FILLER_0_36_53
*1122 FILLER_0_36_65
*1123 FILLER_0_36_77
*1124 FILLER_0_36_83
*1125 FILLER_0_36_85
*1126 FILLER_0_36_97
*1127 FILLER_0_37_105
*1128 FILLER_0_37_111
*1129 FILLER_0_37_113
*1130 FILLER_0_37_125
*1131 FILLER_0_37_137
*1132 FILLER_0_37_149
*1133 FILLER_0_37_15
*1134 FILLER_0_37_161
*1135 FILLER_0_37_167
*1136 FILLER_0_37_169
*1137 FILLER_0_37_181
*1138 FILLER_0_37_193
*1139 FILLER_0_37_201
*1140 FILLER_0_37_210
*1141 FILLER_0_37_222
*1142 FILLER_0_37_225
*1143 FILLER_0_37_237
*1144 FILLER_0_37_249
*1145 FILLER_0_37_261
*1146 FILLER_0_37_27
*1147 FILLER_0_37_276
*1148 FILLER_0_37_281
*1149 FILLER_0_37_293
*1150 FILLER_0_37_3
*1151 FILLER_0_37_305
*1152 FILLER_0_37_317
*1153 FILLER_0_37_329
*1154 FILLER_0_37_39
*1155 FILLER_0_37_51
*1156 FILLER_0_37_55
*1157 FILLER_0_37_57
*1158 FILLER_0_37_69
*1159 FILLER_0_37_81
*1160 FILLER_0_37_93
*1161 FILLER_0_38_10
*1162 FILLER_0_38_102
*1163 FILLER_0_38_106
*1164 FILLER_0_38_110
*1165 FILLER_0_38_113
*1166 FILLER_0_38_118
*1167 FILLER_0_38_122
*1168 FILLER_0_38_126
*1169 FILLER_0_38_130
*1170 FILLER_0_38_134
*1171 FILLER_0_38_14
*1172 FILLER_0_38_144
*1173 FILLER_0_38_150
*1174 FILLER_0_38_154
*1175 FILLER_0_38_158
*1176 FILLER_0_38_166
*1177 FILLER_0_38_169
*1178 FILLER_0_38_177
*1179 FILLER_0_38_18
*1180 FILLER_0_38_185
*1181 FILLER_0_38_193
*1182 FILLER_0_38_197
*1183 FILLER_0_38_217
*1184 FILLER_0_38_22
*1185 FILLER_0_38_223
*1186 FILLER_0_38_238
*1187 FILLER_0_38_250
*1188 FILLER_0_38_253
*1189 FILLER_0_38_279
*1190 FILLER_0_38_297
*1191 FILLER_0_38_302
*1192 FILLER_0_38_312
*1193 FILLER_0_38_318
*1194 FILLER_0_38_32
*1195 FILLER_0_38_330
*1196 FILLER_0_38_334
*1197 FILLER_0_38_38
*1198 FILLER_0_38_42
*1199 FILLER_0_38_46
*1200 FILLER_0_38_50
*1201 FILLER_0_38_54
*1202 FILLER_0_38_57
*1203 FILLER_0_38_6
*1204 FILLER_0_38_62
*1205 FILLER_0_38_66
*1206 FILLER_0_38_70
*1207 FILLER_0_38_74
*1208 FILLER_0_38_78
*1209 FILLER_0_38_88
*1210 FILLER_0_38_94
*1211 FILLER_0_38_98
*1212 FILLER_0_3_105
*1213 FILLER_0_3_111
*1214 FILLER_0_3_113
*1215 FILLER_0_3_125
*1216 FILLER_0_3_137
*1217 FILLER_0_3_149
*1218 FILLER_0_3_15
*1219 FILLER_0_3_161
*1220 FILLER_0_3_167
*1221 FILLER_0_3_169
*1222 FILLER_0_3_181
*1223 FILLER_0_3_193
*1224 FILLER_0_3_205
*1225 FILLER_0_3_217
*1226 FILLER_0_3_223
*1227 FILLER_0_3_225
*1228 FILLER_0_3_237
*1229 FILLER_0_3_249
*1230 FILLER_0_3_261
*1231 FILLER_0_3_27
*1232 FILLER_0_3_273
*1233 FILLER_0_3_279
*1234 FILLER_0_3_281
*1235 FILLER_0_3_293
*1236 FILLER_0_3_3
*1237 FILLER_0_3_305
*1238 FILLER_0_3_317
*1239 FILLER_0_3_329
*1240 FILLER_0_3_39
*1241 FILLER_0_3_51
*1242 FILLER_0_3_55
*1243 FILLER_0_3_57
*1244 FILLER_0_3_69
*1245 FILLER_0_3_81
*1246 FILLER_0_3_93
*1247 FILLER_0_4_109
*1248 FILLER_0_4_121
*1249 FILLER_0_4_133
*1250 FILLER_0_4_139
*1251 FILLER_0_4_141
*1252 FILLER_0_4_15
*1253 FILLER_0_4_153
*1254 FILLER_0_4_165
*1255 FILLER_0_4_177
*1256 FILLER_0_4_189
*1257 FILLER_0_4_195
*1258 FILLER_0_4_197
*1259 FILLER_0_4_209
*1260 FILLER_0_4_221
*1261 FILLER_0_4_233
*1262 FILLER_0_4_245
*1263 FILLER_0_4_251
*1264 FILLER_0_4_253
*1265 FILLER_0_4_265
*1266 FILLER_0_4_27
*1267 FILLER_0_4_277
*1268 FILLER_0_4_289
*1269 FILLER_0_4_29
*1270 FILLER_0_4_3
*1271 FILLER_0_4_301
*1272 FILLER_0_4_307
*1273 FILLER_0_4_309
*1274 FILLER_0_4_321
*1275 FILLER_0_4_333
*1276 FILLER_0_4_41
*1277 FILLER_0_4_53
*1278 FILLER_0_4_65
*1279 FILLER_0_4_77
*1280 FILLER_0_4_83
*1281 FILLER_0_4_85
*1282 FILLER_0_4_97
*1283 FILLER_0_5_105
*1284 FILLER_0_5_111
*1285 FILLER_0_5_113
*1286 FILLER_0_5_125
*1287 FILLER_0_5_137
*1288 FILLER_0_5_149
*1289 FILLER_0_5_15
*1290 FILLER_0_5_161
*1291 FILLER_0_5_167
*1292 FILLER_0_5_169
*1293 FILLER_0_5_181
*1294 FILLER_0_5_193
*1295 FILLER_0_5_205
*1296 FILLER_0_5_217
*1297 FILLER_0_5_223
*1298 FILLER_0_5_225
*1299 FILLER_0_5_237
*1300 FILLER_0_5_249
*1301 FILLER_0_5_261
*1302 FILLER_0_5_27
*1303 FILLER_0_5_273
*1304 FILLER_0_5_279
*1305 FILLER_0_5_281
*1306 FILLER_0_5_293
*1307 FILLER_0_5_3
*1308 FILLER_0_5_305
*1309 FILLER_0_5_317
*1310 FILLER_0_5_329
*1311 FILLER_0_5_39
*1312 FILLER_0_5_51
*1313 FILLER_0_5_55
*1314 FILLER_0_5_57
*1315 FILLER_0_5_69
*1316 FILLER_0_5_81
*1317 FILLER_0_5_93
*1318 FILLER_0_6_109
*1319 FILLER_0_6_121
*1320 FILLER_0_6_133
*1321 FILLER_0_6_139
*1322 FILLER_0_6_141
*1323 FILLER_0_6_15
*1324 FILLER_0_6_153
*1325 FILLER_0_6_165
*1326 FILLER_0_6_177
*1327 FILLER_0_6_189
*1328 FILLER_0_6_195
*1329 FILLER_0_6_197
*1330 FILLER_0_6_209
*1331 FILLER_0_6_221
*1332 FILLER_0_6_233
*1333 FILLER_0_6_245
*1334 FILLER_0_6_251
*1335 FILLER_0_6_253
*1336 FILLER_0_6_265
*1337 FILLER_0_6_27
*1338 FILLER_0_6_277
*1339 FILLER_0_6_289
*1340 FILLER_0_6_29
*1341 FILLER_0_6_3
*1342 FILLER_0_6_301
*1343 FILLER_0_6_307
*1344 FILLER_0_6_309
*1345 FILLER_0_6_321
*1346 FILLER_0_6_333
*1347 FILLER_0_6_41
*1348 FILLER_0_6_53
*1349 FILLER_0_6_65
*1350 FILLER_0_6_77
*1351 FILLER_0_6_83
*1352 FILLER_0_6_85
*1353 FILLER_0_6_97
*1354 FILLER_0_7_105
*1355 FILLER_0_7_111
*1356 FILLER_0_7_113
*1357 FILLER_0_7_125
*1358 FILLER_0_7_137
*1359 FILLER_0_7_149
*1360 FILLER_0_7_15
*1361 FILLER_0_7_161
*1362 FILLER_0_7_167
*1363 FILLER_0_7_169
*1364 FILLER_0_7_181
*1365 FILLER_0_7_193
*1366 FILLER_0_7_205
*1367 FILLER_0_7_217
*1368 FILLER_0_7_223
*1369 FILLER_0_7_225
*1370 FILLER_0_7_237
*1371 FILLER_0_7_249
*1372 FILLER_0_7_261
*1373 FILLER_0_7_27
*1374 FILLER_0_7_273
*1375 FILLER_0_7_279
*1376 FILLER_0_7_281
*1377 FILLER_0_7_293
*1378 FILLER_0_7_3
*1379 FILLER_0_7_305
*1380 FILLER_0_7_317
*1381 FILLER_0_7_329
*1382 FILLER_0_7_39
*1383 FILLER_0_7_51
*1384 FILLER_0_7_55
*1385 FILLER_0_7_57
*1386 FILLER_0_7_69
*1387 FILLER_0_7_81
*1388 FILLER_0_7_93
*1389 FILLER_0_8_109
*1390 FILLER_0_8_121
*1391 FILLER_0_8_133
*1392 FILLER_0_8_139
*1393 FILLER_0_8_141
*1394 FILLER_0_8_15
*1395 FILLER_0_8_153
*1396 FILLER_0_8_165
*1397 FILLER_0_8_177
*1398 FILLER_0_8_189
*1399 FILLER_0_8_195
*1400 FILLER_0_8_197
*1401 FILLER_0_8_209
*1402 FILLER_0_8_221
*1403 FILLER_0_8_233
*1404 FILLER_0_8_245
*1405 FILLER_0_8_251
*1406 FILLER_0_8_253
*1407 FILLER_0_8_265
*1408 FILLER_0_8_27
*1409 FILLER_0_8_277
*1410 FILLER_0_8_289
*1411 FILLER_0_8_29
*1412 FILLER_0_8_3
*1413 FILLER_0_8_301
*1414 FILLER_0_8_307
*1415 FILLER_0_8_309
*1416 FILLER_0_8_321
*1417 FILLER_0_8_333
*1418 FILLER_0_8_41
*1419 FILLER_0_8_53
*1420 FILLER_0_8_65
*1421 FILLER_0_8_77
*1422 FILLER_0_8_83
*1423 FILLER_0_8_85
*1424 FILLER_0_8_97
*1425 FILLER_0_9_105
*1426 FILLER_0_9_111
*1427 FILLER_0_9_113
*1428 FILLER_0_9_125
*1429 FILLER_0_9_137
*1430 FILLER_0_9_149
*1431 FILLER_0_9_15
*1432 FILLER_0_9_161
*1433 FILLER_0_9_167
*1434 FILLER_0_9_169
*1435 FILLER_0_9_181
*1436 FILLER_0_9_193
*1437 FILLER_0_9_205
*1438 FILLER_0_9_217
*1439 FILLER_0_9_223
*1440 FILLER_0_9_225
*1441 FILLER_0_9_237
*1442 FILLER_0_9_249
*1443 FILLER_0_9_261
*1444 FILLER_0_9_27
*1445 FILLER_0_9_273
*1446 FILLER_0_9_279
*1447 FILLER_0_9_281
*1448 FILLER_0_9_293
*1449 FILLER_0_9_3
*1450 FILLER_0_9_305
*1451 FILLER_0_9_317
*1452 FILLER_0_9_329
*1453 FILLER_0_9_39
*1454 FILLER_0_9_51
*1455 FILLER_0_9_55
*1456 FILLER_0_9_57
*1457 FILLER_0_9_69
*1458 FILLER_0_9_81
*1459 FILLER_0_9_93