*SPEF "ieee 1481-1999"
*DESIGN "tt_um_timer_counter_UGM"
*DATE "17:16:24 Friday April 19, 2024"
*VENDOR "The OpenROAD Project"
*PROGRAM "OpenROAD"
*VERSION "0889970d1790a2617e69f253221b8bd7626e51dc"
*DESIGN_FLOW "NAME_SCOPE LOCAL" "PIN_CAP NONE"
*DIVIDER /
*DELIMITER :
*BUS_DELIMITER []
*T_UNIT 1 NS
*C_UNIT 1 PF
*R_UNIT 1 OHM
*L_UNIT 1 HENRY

*NAME_MAP
*3 clk
*4 ena
*5 rst_n
*6 ui_in[0]
*7 ui_in[1]
*8 ui_in[2]
*9 ui_in[3]
*10 ui_in[4]
*11 ui_in[5]
*12 ui_in[6]
*13 ui_in[7]
*14 uio_in[0]
*15 uio_in[1]
*16 uio_in[2]
*17 uio_in[3]
*18 uio_in[4]
*19 uio_in[5]
*20 uio_in[6]
*21 uio_in[7]
*22 net21
*23 net22
*24 net23
*25 net24
*26 net13
*27 net14
*28 net15
*29 net16
*30 uio_out[0]
*31 uio_out[1]
*32 uio_out[2]
*33 uio_out[3]
*34 net17
*35 net18
*36 net19
*37 net20
*38 uo_out[0]
*39 uo_out[1]
*40 uo_out[2]
*41 uo_out[3]
*42 uo_out[4]
*43 uo_out[5]
*44 uo_out[6]
*45 uo_out[7]
*46 _000_
*47 _001_
*48 _002_
*49 _003_
*50 _004_
*51 _005_
*52 _006_
*53 _007_
*54 _008_
*55 _009_
*56 _010_
*57 _011_
*58 _012_
*59 _013_
*60 _014_
*61 _015_
*62 _016_
*63 _017_
*64 _018_
*65 _019_
*66 _020_
*67 _021_
*68 _022_
*69 _023_
*70 _024_
*71 _025_
*72 _026_
*73 _027_
*74 _028_
*75 _029_
*76 _030_
*77 _031_
*78 _032_
*79 _033_
*80 _034_
*81 _035_
*82 _036_
*83 _037_
*84 _038_
*85 _039_
*86 _040_
*87 _041_
*88 _042_
*89 _043_
*90 _044_
*91 _045_
*92 _046_
*93 _047_
*94 _048_
*95 _049_
*96 _050_
*97 _051_
*98 _052_
*99 _053_
*100 _054_
*101 _055_
*102 _056_
*103 _057_
*104 _058_
*105 _059_
*106 _060_
*107 _061_
*108 _062_
*109 _063_
*110 _064_
*111 _065_
*112 _066_
*113 _067_
*114 _068_
*115 _069_
*116 _070_
*117 _071_
*118 _072_
*119 _073_
*120 _074_
*121 _075_
*122 _076_
*123 _077_
*124 _078_
*125 _079_
*126 _080_
*127 _081_
*128 _082_
*129 _083_
*130 _084_
*131 _085_
*132 _086_
*133 _087_
*134 _088_
*135 _089_
*136 _090_
*137 _091_
*138 _092_
*139 _093_
*140 _094_
*141 _095_
*142 _096_
*143 _097_
*144 _098_
*145 _099_
*146 _100_
*147 _101_
*148 _102_
*149 _103_
*150 _104_
*151 _105_
*152 _106_
*153 _107_
*154 _108_
*155 _109_
*156 _110_
*157 _111_
*158 _112_
*159 _113_
*160 _114_
*161 _115_
*162 _116_
*163 _117_
*164 _118_
*165 _119_
*166 _120_
*167 _121_
*168 _122_
*169 _123_
*170 _124_
*171 _125_
*172 _126_
*173 _127_
*174 _128_
*175 _129_
*176 _130_
*177 _131_
*178 _132_
*179 _133_
*180 _134_
*181 _135_
*182 _136_
*183 _137_
*184 _138_
*185 _139_
*186 _140_
*187 _141_
*188 _142_
*189 _143_
*190 _144_
*191 _145_
*192 _146_
*193 _147_
*194 clknet_0_clk
*195 clknet_2_0__leaf_clk
*196 clknet_2_1__leaf_clk
*197 clknet_2_2__leaf_clk
*198 clknet_2_3__leaf_clk
*199 net1
*200 net10
*201 net11
*202 net12
*203 net2
*204 net25
*205 net26
*206 net27
*207 net28
*208 net29
*209 net3
*210 net30
*211 net31
*212 net32
*213 net33
*214 net34
*215 net35
*216 net36
*217 net37
*218 net38
*219 net39
*220 net4
*221 net40
*222 net41
*223 net42
*224 net43
*225 net44
*226 net45
*227 net46
*228 net47
*229 net48
*230 net49
*231 net5
*232 net50
*233 net51
*234 net52
*235 net53
*236 net54
*237 net55
*238 net56
*239 net57
*240 net58
*241 net59
*242 net6
*243 net60
*244 net61
*245 net62
*246 net7
*247 net8
*248 net9
*249 t0\.c0\.clk
*250 t0\.c0\.q\[0\]
*251 t0\.c0\.q\[1\]
*252 t0\.c0\.q\[2\]
*253 t0\.c0\.q\[3\]
*254 t0\.c1\.q\[0\]
*255 t0\.c1\.q\[1\]
*256 t0\.c1\.q\[2\]
*257 t0\.c1\.q\[3\]
*258 t0\.c2\.q\[0\]
*259 t0\.c2\.q\[1\]
*260 t0\.c2\.q\[2\]
*261 t0\.c2\.q\[3\]
*262 t0\.c3\.q\[0\]
*263 t0\.c3\.q\[1\]
*264 t0\.c3\.q\[2\]
*265 t0\.c3\.q\[3\]
*266 t0\.clk_1Hz
*267 t0\.clk_div_1Hz\[0\]
*268 t0\.clk_div_1Hz\[1\]
*269 t0\.clk_div_1Hz\[2\]
*270 t0\.clk_div_1Hz\[3\]
*271 t0\.clk_div_1Hz\[4\]
*272 t0\.clk_div_1Hz\[5\]
*273 t0\.clk_div_1Hz\[6\]
*274 t0\.clk_div_1Hz\[7\]
*275 t0\.clk_div_1Hz\[8\]
*276 t0\.clk_div_1Hz\[9\]
*277 t0\.d0\.q
*278 t0\.d0\.sreg\[0\]
*279 t0\.d0\.sreg\[1\]
*280 t0\.d0\.sreg\[2\]
*281 t0\.d0\.sreg\[3\]
*282 t0\.d0\.sreg\[4\]
*283 t0\.d0\.sreg\[5\]
*284 t0\.d0\.sreg\[6\]
*285 t0\.d0\.sreg\[7\]
*286 t0\.d1\.q
*287 t0\.d1\.sreg\[0\]
*288 t0\.d1\.sreg\[1\]
*289 t0\.d1\.sreg\[2\]
*290 t0\.d1\.sreg\[3\]
*291 t0\.d1\.sreg\[4\]
*292 t0\.d1\.sreg\[5\]
*293 t0\.d1\.sreg\[6\]
*294 t0\.d1\.sreg\[7\]
*295 t0\.d2\.q
*296 t0\.d2\.sreg\[0\]
*297 t0\.d2\.sreg\[1\]
*298 t0\.d2\.sreg\[2\]
*299 t0\.d2\.sreg\[3\]
*300 t0\.d2\.sreg\[4\]
*301 t0\.d2\.sreg\[5\]
*302 t0\.d2\.sreg\[6\]
*303 t0\.d2\.sreg\[7\]
*304 t0\.enclock_1Hz
*305 t0\.m0\.sel\[0\]
*306 t0\.m0\.sel\[1\]
*307 t0\.mode_lock
*308 t0\.mode_reg
*309 FILLER_0_0_109
*310 FILLER_0_0_113
*311 FILLER_0_0_125
*312 FILLER_0_0_137
*313 FILLER_0_0_141
*314 FILLER_0_0_15
*315 FILLER_0_0_153
*316 FILLER_0_0_165
*317 FILLER_0_0_169
*318 FILLER_0_0_181
*319 FILLER_0_0_193
*320 FILLER_0_0_197
*321 FILLER_0_0_209
*322 FILLER_0_0_221
*323 FILLER_0_0_225
*324 FILLER_0_0_237
*325 FILLER_0_0_249
*326 FILLER_0_0_253
*327 FILLER_0_0_265
*328 FILLER_0_0_27
*329 FILLER_0_0_277
*330 FILLER_0_0_281
*331 FILLER_0_0_29
*332 FILLER_0_0_293
*333 FILLER_0_0_3
*334 FILLER_0_0_305
*335 FILLER_0_0_309
*336 FILLER_0_0_321
*337 FILLER_0_0_333
*338 FILLER_0_0_41
*339 FILLER_0_0_53
*340 FILLER_0_0_57
*341 FILLER_0_0_69
*342 FILLER_0_0_81
*343 FILLER_0_0_85
*344 FILLER_0_0_97
*345 FILLER_0_10_109
*346 FILLER_0_10_121
*347 FILLER_0_10_133
*348 FILLER_0_10_139
*349 FILLER_0_10_141
*350 FILLER_0_10_15
*351 FILLER_0_10_153
*352 FILLER_0_10_165
*353 FILLER_0_10_177
*354 FILLER_0_10_189
*355 FILLER_0_10_195
*356 FILLER_0_10_197
*357 FILLER_0_10_209
*358 FILLER_0_10_221
*359 FILLER_0_10_233
*360 FILLER_0_10_245
*361 FILLER_0_10_251
*362 FILLER_0_10_253
*363 FILLER_0_10_265
*364 FILLER_0_10_27
*365 FILLER_0_10_277
*366 FILLER_0_10_289
*367 FILLER_0_10_29
*368 FILLER_0_10_3
*369 FILLER_0_10_301
*370 FILLER_0_10_307
*371 FILLER_0_10_309
*372 FILLER_0_10_321
*373 FILLER_0_10_333
*374 FILLER_0_10_41
*375 FILLER_0_10_53
*376 FILLER_0_10_65
*377 FILLER_0_10_77
*378 FILLER_0_10_83
*379 FILLER_0_10_85
*380 FILLER_0_10_97
*381 FILLER_0_11_105
*382 FILLER_0_11_111
*383 FILLER_0_11_113
*384 FILLER_0_11_125
*385 FILLER_0_11_137
*386 FILLER_0_11_149
*387 FILLER_0_11_15
*388 FILLER_0_11_161
*389 FILLER_0_11_167
*390 FILLER_0_11_169
*391 FILLER_0_11_181
*392 FILLER_0_11_193
*393 FILLER_0_11_205
*394 FILLER_0_11_217
*395 FILLER_0_11_223
*396 FILLER_0_11_225
*397 FILLER_0_11_237
*398 FILLER_0_11_249
*399 FILLER_0_11_261
*400 FILLER_0_11_27
*401 FILLER_0_11_273
*402 FILLER_0_11_279
*403 FILLER_0_11_281
*404 FILLER_0_11_293
*405 FILLER_0_11_3
*406 FILLER_0_11_305
*407 FILLER_0_11_317
*408 FILLER_0_11_329
*409 FILLER_0_11_39
*410 FILLER_0_11_51
*411 FILLER_0_11_55
*412 FILLER_0_11_57
*413 FILLER_0_11_69
*414 FILLER_0_11_81
*415 FILLER_0_11_93
*416 FILLER_0_12_109
*417 FILLER_0_12_121
*418 FILLER_0_12_133
*419 FILLER_0_12_139
*420 FILLER_0_12_141
*421 FILLER_0_12_15
*422 FILLER_0_12_153
*423 FILLER_0_12_165
*424 FILLER_0_12_177
*425 FILLER_0_12_189
*426 FILLER_0_12_195
*427 FILLER_0_12_197
*428 FILLER_0_12_209
*429 FILLER_0_12_221
*430 FILLER_0_12_233
*431 FILLER_0_12_245
*432 FILLER_0_12_251
*433 FILLER_0_12_253
*434 FILLER_0_12_265
*435 FILLER_0_12_27
*436 FILLER_0_12_277
*437 FILLER_0_12_289
*438 FILLER_0_12_29
*439 FILLER_0_12_3
*440 FILLER_0_12_301
*441 FILLER_0_12_307
*442 FILLER_0_12_309
*443 FILLER_0_12_321
*444 FILLER_0_12_333
*445 FILLER_0_12_41
*446 FILLER_0_12_53
*447 FILLER_0_12_65
*448 FILLER_0_12_77
*449 FILLER_0_12_83
*450 FILLER_0_12_85
*451 FILLER_0_12_97
*452 FILLER_0_13_105
*453 FILLER_0_13_111
*454 FILLER_0_13_113
*455 FILLER_0_13_125
*456 FILLER_0_13_137
*457 FILLER_0_13_149
*458 FILLER_0_13_15
*459 FILLER_0_13_161
*460 FILLER_0_13_167
*461 FILLER_0_13_169
*462 FILLER_0_13_181
*463 FILLER_0_13_193
*464 FILLER_0_13_205
*465 FILLER_0_13_217
*466 FILLER_0_13_223
*467 FILLER_0_13_225
*468 FILLER_0_13_237
*469 FILLER_0_13_249
*470 FILLER_0_13_261
*471 FILLER_0_13_27
*472 FILLER_0_13_273
*473 FILLER_0_13_279
*474 FILLER_0_13_281
*475 FILLER_0_13_293
*476 FILLER_0_13_3
*477 FILLER_0_13_305
*478 FILLER_0_13_317
*479 FILLER_0_13_329
*480 FILLER_0_13_39
*481 FILLER_0_13_51
*482 FILLER_0_13_55
*483 FILLER_0_13_57
*484 FILLER_0_13_69
*485 FILLER_0_13_81
*486 FILLER_0_13_93
*487 FILLER_0_14_109
*488 FILLER_0_14_121
*489 FILLER_0_14_133
*490 FILLER_0_14_139
*491 FILLER_0_14_141
*492 FILLER_0_14_15
*493 FILLER_0_14_153
*494 FILLER_0_14_165
*495 FILLER_0_14_177
*496 FILLER_0_14_189
*497 FILLER_0_14_195
*498 FILLER_0_14_197
*499 FILLER_0_14_209
*500 FILLER_0_14_221
*501 FILLER_0_14_233
*502 FILLER_0_14_245
*503 FILLER_0_14_251
*504 FILLER_0_14_253
*505 FILLER_0_14_265
*506 FILLER_0_14_27
*507 FILLER_0_14_277
*508 FILLER_0_14_289
*509 FILLER_0_14_29
*510 FILLER_0_14_3
*511 FILLER_0_14_301
*512 FILLER_0_14_307
*513 FILLER_0_14_309
*514 FILLER_0_14_321
*515 FILLER_0_14_333
*516 FILLER_0_14_41
*517 FILLER_0_14_53
*518 FILLER_0_14_65
*519 FILLER_0_14_77
*520 FILLER_0_14_83
*521 FILLER_0_14_85
*522 FILLER_0_14_97
*523 FILLER_0_15_105
*524 FILLER_0_15_111
*525 FILLER_0_15_113
*526 FILLER_0_15_125
*527 FILLER_0_15_137
*528 FILLER_0_15_149
*529 FILLER_0_15_15
*530 FILLER_0_15_161
*531 FILLER_0_15_167
*532 FILLER_0_15_169
*533 FILLER_0_15_181
*534 FILLER_0_15_193
*535 FILLER_0_15_205
*536 FILLER_0_15_217
*537 FILLER_0_15_223
*538 FILLER_0_15_225
*539 FILLER_0_15_237
*540 FILLER_0_15_249
*541 FILLER_0_15_261
*542 FILLER_0_15_27
*543 FILLER_0_15_273
*544 FILLER_0_15_279
*545 FILLER_0_15_281
*546 FILLER_0_15_293
*547 FILLER_0_15_3
*548 FILLER_0_15_305
*549 FILLER_0_15_317
*550 FILLER_0_15_329
*551 FILLER_0_15_39
*552 FILLER_0_15_51
*553 FILLER_0_15_55
*554 FILLER_0_15_57
*555 FILLER_0_15_69
*556 FILLER_0_15_81
*557 FILLER_0_15_93
*558 FILLER_0_16_109
*559 FILLER_0_16_121
*560 FILLER_0_16_133
*561 FILLER_0_16_139
*562 FILLER_0_16_141
*563 FILLER_0_16_15
*564 FILLER_0_16_153
*565 FILLER_0_16_165
*566 FILLER_0_16_177
*567 FILLER_0_16_189
*568 FILLER_0_16_195
*569 FILLER_0_16_197
*570 FILLER_0_16_209
*571 FILLER_0_16_221
*572 FILLER_0_16_233
*573 FILLER_0_16_245
*574 FILLER_0_16_251
*575 FILLER_0_16_253
*576 FILLER_0_16_265
*577 FILLER_0_16_27
*578 FILLER_0_16_277
*579 FILLER_0_16_289
*580 FILLER_0_16_29
*581 FILLER_0_16_3
*582 FILLER_0_16_301
*583 FILLER_0_16_307
*584 FILLER_0_16_309
*585 FILLER_0_16_321
*586 FILLER_0_16_333
*587 FILLER_0_16_41
*588 FILLER_0_16_53
*589 FILLER_0_16_65
*590 FILLER_0_16_77
*591 FILLER_0_16_83
*592 FILLER_0_16_85
*593 FILLER_0_16_97
*594 FILLER_0_17_105
*595 FILLER_0_17_111
*596 FILLER_0_17_113
*597 FILLER_0_17_125
*598 FILLER_0_17_137
*599 FILLER_0_17_149
*600 FILLER_0_17_15
*601 FILLER_0_17_161
*602 FILLER_0_17_167
*603 FILLER_0_17_169
*604 FILLER_0_17_181
*605 FILLER_0_17_193
*606 FILLER_0_17_205
*607 FILLER_0_17_217
*608 FILLER_0_17_223
*609 FILLER_0_17_225
*610 FILLER_0_17_237
*611 FILLER_0_17_249
*612 FILLER_0_17_261
*613 FILLER_0_17_27
*614 FILLER_0_17_273
*615 FILLER_0_17_279
*616 FILLER_0_17_281
*617 FILLER_0_17_293
*618 FILLER_0_17_3
*619 FILLER_0_17_305
*620 FILLER_0_17_317
*621 FILLER_0_17_329
*622 FILLER_0_17_39
*623 FILLER_0_17_51
*624 FILLER_0_17_55
*625 FILLER_0_17_57
*626 FILLER_0_17_69
*627 FILLER_0_17_81
*628 FILLER_0_17_93
*629 FILLER_0_18_109
*630 FILLER_0_18_121
*631 FILLER_0_18_133
*632 FILLER_0_18_139
*633 FILLER_0_18_141
*634 FILLER_0_18_15
*635 FILLER_0_18_153
*636 FILLER_0_18_165
*637 FILLER_0_18_177
*638 FILLER_0_18_189
*639 FILLER_0_18_195
*640 FILLER_0_18_197
*641 FILLER_0_18_209
*642 FILLER_0_18_221
*643 FILLER_0_18_233
*644 FILLER_0_18_245
*645 FILLER_0_18_251
*646 FILLER_0_18_253
*647 FILLER_0_18_265
*648 FILLER_0_18_27
*649 FILLER_0_18_277
*650 FILLER_0_18_289
*651 FILLER_0_18_29
*652 FILLER_0_18_3
*653 FILLER_0_18_301
*654 FILLER_0_18_307
*655 FILLER_0_18_309
*656 FILLER_0_18_321
*657 FILLER_0_18_333
*658 FILLER_0_18_41
*659 FILLER_0_18_53
*660 FILLER_0_18_65
*661 FILLER_0_18_77
*662 FILLER_0_18_83
*663 FILLER_0_18_85
*664 FILLER_0_18_97
*665 FILLER_0_19_105
*666 FILLER_0_19_111
*667 FILLER_0_19_113
*668 FILLER_0_19_125
*669 FILLER_0_19_137
*670 FILLER_0_19_149
*671 FILLER_0_19_15
*672 FILLER_0_19_161
*673 FILLER_0_19_167
*674 FILLER_0_19_169
*675 FILLER_0_19_181
*676 FILLER_0_19_193
*677 FILLER_0_19_205
*678 FILLER_0_19_217
*679 FILLER_0_19_223
*680 FILLER_0_19_225
*681 FILLER_0_19_237
*682 FILLER_0_19_249
*683 FILLER_0_19_261
*684 FILLER_0_19_27
*685 FILLER_0_19_273
*686 FILLER_0_19_279
*687 FILLER_0_19_281
*688 FILLER_0_19_293
*689 FILLER_0_19_3
*690 FILLER_0_19_305
*691 FILLER_0_19_317
*692 FILLER_0_19_329
*693 FILLER_0_19_39
*694 FILLER_0_19_51
*695 FILLER_0_19_55
*696 FILLER_0_19_57
*697 FILLER_0_19_69
*698 FILLER_0_19_81
*699 FILLER_0_19_93
*700 FILLER_0_1_105
*701 FILLER_0_1_111
*702 FILLER_0_1_113
*703 FILLER_0_1_125
*704 FILLER_0_1_137
*705 FILLER_0_1_149
*706 FILLER_0_1_15
*707 FILLER_0_1_161
*708 FILLER_0_1_167
*709 FILLER_0_1_169
*710 FILLER_0_1_181
*711 FILLER_0_1_193
*712 FILLER_0_1_205
*713 FILLER_0_1_217
*714 FILLER_0_1_223
*715 FILLER_0_1_225
*716 FILLER_0_1_237
*717 FILLER_0_1_249
*718 FILLER_0_1_261
*719 FILLER_0_1_27
*720 FILLER_0_1_273
*721 FILLER_0_1_279
*722 FILLER_0_1_281
*723 FILLER_0_1_293
*724 FILLER_0_1_3
*725 FILLER_0_1_305
*726 FILLER_0_1_317
*727 FILLER_0_1_329
*728 FILLER_0_1_39
*729 FILLER_0_1_51
*730 FILLER_0_1_55
*731 FILLER_0_1_57
*732 FILLER_0_1_69
*733 FILLER_0_1_81
*734 FILLER_0_1_93
*735 FILLER_0_20_109
*736 FILLER_0_20_121
*737 FILLER_0_20_133
*738 FILLER_0_20_139
*739 FILLER_0_20_141
*740 FILLER_0_20_15
*741 FILLER_0_20_153
*742 FILLER_0_20_165
*743 FILLER_0_20_177
*744 FILLER_0_20_189
*745 FILLER_0_20_195
*746 FILLER_0_20_197
*747 FILLER_0_20_209
*748 FILLER_0_20_221
*749 FILLER_0_20_233
*750 FILLER_0_20_245
*751 FILLER_0_20_251
*752 FILLER_0_20_253
*753 FILLER_0_20_265
*754 FILLER_0_20_27
*755 FILLER_0_20_277
*756 FILLER_0_20_289
*757 FILLER_0_20_29
*758 FILLER_0_20_3
*759 FILLER_0_20_301
*760 FILLER_0_20_307
*761 FILLER_0_20_309
*762 FILLER_0_20_321
*763 FILLER_0_20_333
*764 FILLER_0_20_41
*765 FILLER_0_20_53
*766 FILLER_0_20_65
*767 FILLER_0_20_77
*768 FILLER_0_20_83
*769 FILLER_0_20_85
*770 FILLER_0_20_97
*771 FILLER_0_21_105
*772 FILLER_0_21_111
*773 FILLER_0_21_113
*774 FILLER_0_21_125
*775 FILLER_0_21_137
*776 FILLER_0_21_149
*777 FILLER_0_21_15
*778 FILLER_0_21_161
*779 FILLER_0_21_167
*780 FILLER_0_21_169
*781 FILLER_0_21_181
*782 FILLER_0_21_193
*783 FILLER_0_21_205
*784 FILLER_0_21_217
*785 FILLER_0_21_223
*786 FILLER_0_21_225
*787 FILLER_0_21_237
*788 FILLER_0_21_249
*789 FILLER_0_21_261
*790 FILLER_0_21_27
*791 FILLER_0_21_273
*792 FILLER_0_21_279
*793 FILLER_0_21_281
*794 FILLER_0_21_293
*795 FILLER_0_21_3
*796 FILLER_0_21_305
*797 FILLER_0_21_317
*798 FILLER_0_21_329
*799 FILLER_0_21_39
*800 FILLER_0_21_51
*801 FILLER_0_21_55
*802 FILLER_0_21_57
*803 FILLER_0_21_69
*804 FILLER_0_21_81
*805 FILLER_0_21_93
*806 FILLER_0_22_109
*807 FILLER_0_22_121
*808 FILLER_0_22_133
*809 FILLER_0_22_139
*810 FILLER_0_22_141
*811 FILLER_0_22_15
*812 FILLER_0_22_153
*813 FILLER_0_22_165
*814 FILLER_0_22_177
*815 FILLER_0_22_189
*816 FILLER_0_22_195
*817 FILLER_0_22_197
*818 FILLER_0_22_209
*819 FILLER_0_22_221
*820 FILLER_0_22_233
*821 FILLER_0_22_245
*822 FILLER_0_22_251
*823 FILLER_0_22_253
*824 FILLER_0_22_265
*825 FILLER_0_22_27
*826 FILLER_0_22_277
*827 FILLER_0_22_289
*828 FILLER_0_22_29
*829 FILLER_0_22_3
*830 FILLER_0_22_301
*831 FILLER_0_22_307
*832 FILLER_0_22_309
*833 FILLER_0_22_321
*834 FILLER_0_22_333
*835 FILLER_0_22_41
*836 FILLER_0_22_53
*837 FILLER_0_22_65
*838 FILLER_0_22_77
*839 FILLER_0_22_83
*840 FILLER_0_22_85
*841 FILLER_0_22_97
*842 FILLER_0_23_105
*843 FILLER_0_23_111
*844 FILLER_0_23_113
*845 FILLER_0_23_125
*846 FILLER_0_23_137
*847 FILLER_0_23_149
*848 FILLER_0_23_15
*849 FILLER_0_23_161
*850 FILLER_0_23_167
*851 FILLER_0_23_169
*852 FILLER_0_23_181
*853 FILLER_0_23_193
*854 FILLER_0_23_205
*855 FILLER_0_23_217
*856 FILLER_0_23_223
*857 FILLER_0_23_225
*858 FILLER_0_23_237
*859 FILLER_0_23_249
*860 FILLER_0_23_261
*861 FILLER_0_23_27
*862 FILLER_0_23_273
*863 FILLER_0_23_279
*864 FILLER_0_23_281
*865 FILLER_0_23_293
*866 FILLER_0_23_3
*867 FILLER_0_23_305
*868 FILLER_0_23_317
*869 FILLER_0_23_329
*870 FILLER_0_23_39
*871 FILLER_0_23_51
*872 FILLER_0_23_55
*873 FILLER_0_23_57
*874 FILLER_0_23_69
*875 FILLER_0_23_81
*876 FILLER_0_23_93
*877 FILLER_0_24_102
*878 FILLER_0_24_109
*879 FILLER_0_24_136
*880 FILLER_0_24_141
*881 FILLER_0_24_15
*882 FILLER_0_24_153
*883 FILLER_0_24_165
*884 FILLER_0_24_177
*885 FILLER_0_24_195
*886 FILLER_0_24_197
*887 FILLER_0_24_205
*888 FILLER_0_24_209
*889 FILLER_0_24_218
*890 FILLER_0_24_230
*891 FILLER_0_24_242
*892 FILLER_0_24_250
*893 FILLER_0_24_253
*894 FILLER_0_24_265
*895 FILLER_0_24_27
*896 FILLER_0_24_277
*897 FILLER_0_24_289
*898 FILLER_0_24_29
*899 FILLER_0_24_3
*900 FILLER_0_24_301
*901 FILLER_0_24_307
*902 FILLER_0_24_309
*903 FILLER_0_24_321
*904 FILLER_0_24_333
*905 FILLER_0_24_41
*906 FILLER_0_24_53
*907 FILLER_0_24_65
*908 FILLER_0_24_77
*909 FILLER_0_24_83
*910 FILLER_0_24_85
*911 FILLER_0_24_98
*912 FILLER_0_25_145
*913 FILLER_0_25_15
*914 FILLER_0_25_157
*915 FILLER_0_25_165
*916 FILLER_0_25_169
*917 FILLER_0_25_198
*918 FILLER_0_25_219
*919 FILLER_0_25_223
*920 FILLER_0_25_225
*921 FILLER_0_25_269
*922 FILLER_0_25_27
*923 FILLER_0_25_277
*924 FILLER_0_25_281
*925 FILLER_0_25_293
*926 FILLER_0_25_299
*927 FILLER_0_25_3
*928 FILLER_0_25_39
*929 FILLER_0_25_51
*930 FILLER_0_25_55
*931 FILLER_0_25_57
*932 FILLER_0_25_69
*933 FILLER_0_25_81
*934 FILLER_0_25_89
*935 FILLER_0_26_108
*936 FILLER_0_26_129
*937 FILLER_0_26_137
*938 FILLER_0_26_141
*939 FILLER_0_26_149
*940 FILLER_0_26_15
*941 FILLER_0_26_158
*942 FILLER_0_26_170
*943 FILLER_0_26_174
*944 FILLER_0_26_195
*945 FILLER_0_26_225
*946 FILLER_0_26_240
*947 FILLER_0_26_250
*948 FILLER_0_26_261
*949 FILLER_0_26_27
*950 FILLER_0_26_29
*951 FILLER_0_26_295
*952 FILLER_0_26_299
*953 FILLER_0_26_3
*954 FILLER_0_26_329
*955 FILLER_0_26_41
*956 FILLER_0_26_53
*957 FILLER_0_26_65
*958 FILLER_0_26_77
*959 FILLER_0_26_83
*960 FILLER_0_27_105
*961 FILLER_0_27_109
*962 FILLER_0_27_113
*963 FILLER_0_27_119
*964 FILLER_0_27_131
*965 FILLER_0_27_143
*966 FILLER_0_27_15
*967 FILLER_0_27_153
*968 FILLER_0_27_158
*969 FILLER_0_27_166
*970 FILLER_0_27_169
*971 FILLER_0_27_191
*972 FILLER_0_27_201
*973 FILLER_0_27_205
*974 FILLER_0_27_223
*975 FILLER_0_27_225
*976 FILLER_0_27_231
*977 FILLER_0_27_252
*978 FILLER_0_27_264
*979 FILLER_0_27_27
*980 FILLER_0_27_272
*981 FILLER_0_27_3
*982 FILLER_0_27_39
*983 FILLER_0_27_48
*984 FILLER_0_27_57
*985 FILLER_0_27_69
*986 FILLER_0_27_80
*987 FILLER_0_27_84
*988 FILLER_0_27_97
*989 FILLER_0_28_100
*990 FILLER_0_28_129
*991 FILLER_0_28_137
*992 FILLER_0_28_141
*993 FILLER_0_28_15
*994 FILLER_0_28_172
*995 FILLER_0_28_184
*996 FILLER_0_28_197
*997 FILLER_0_28_207
*998 FILLER_0_28_233
*999 FILLER_0_28_247
*1000 FILLER_0_28_251
*1001 FILLER_0_28_256
*1002 FILLER_0_28_264
*1003 FILLER_0_28_27
*1004 FILLER_0_28_29
*1005 FILLER_0_28_3
*1006 FILLER_0_28_306
*1007 FILLER_0_28_332
*1008 FILLER_0_28_35
*1009 FILLER_0_28_57
*1010 FILLER_0_28_63
*1011 FILLER_0_28_88
*1012 FILLER_0_29_100
*1013 FILLER_0_29_147
*1014 FILLER_0_29_15
*1015 FILLER_0_29_178
*1016 FILLER_0_29_190
*1017 FILLER_0_29_202
*1018 FILLER_0_29_214
*1019 FILLER_0_29_222
*1020 FILLER_0_29_225
*1021 FILLER_0_29_268
*1022 FILLER_0_29_27
*1023 FILLER_0_29_289
*1024 FILLER_0_29_3
*1025 FILLER_0_29_315
*1026 FILLER_0_29_60
*1027 FILLER_0_2_109
*1028 FILLER_0_2_121
*1029 FILLER_0_2_133
*1030 FILLER_0_2_139
*1031 FILLER_0_2_141
*1032 FILLER_0_2_15
*1033 FILLER_0_2_153
*1034 FILLER_0_2_165
*1035 FILLER_0_2_177
*1036 FILLER_0_2_189
*1037 FILLER_0_2_195
*1038 FILLER_0_2_197
*1039 FILLER_0_2_209
*1040 FILLER_0_2_221
*1041 FILLER_0_2_233
*1042 FILLER_0_2_245
*1043 FILLER_0_2_251
*1044 FILLER_0_2_253
*1045 FILLER_0_2_265
*1046 FILLER_0_2_27
*1047 FILLER_0_2_277
*1048 FILLER_0_2_289
*1049 FILLER_0_2_29
*1050 FILLER_0_2_3
*1051 FILLER_0_2_301
*1052 FILLER_0_2_307
*1053 FILLER_0_2_309
*1054 FILLER_0_2_321
*1055 FILLER_0_2_333
*1056 FILLER_0_2_41
*1057 FILLER_0_2_53
*1058 FILLER_0_2_65
*1059 FILLER_0_2_77
*1060 FILLER_0_2_83
*1061 FILLER_0_2_85
*1062 FILLER_0_2_97
*1063 FILLER_0_30_127
*1064 FILLER_0_30_139
*1065 FILLER_0_30_141
*1066 FILLER_0_30_15
*1067 FILLER_0_30_157
*1068 FILLER_0_30_179
*1069 FILLER_0_30_191
*1070 FILLER_0_30_195
*1071 FILLER_0_30_197
*1072 FILLER_0_30_204
*1073 FILLER_0_30_258
*1074 FILLER_0_30_27
*1075 FILLER_0_30_280
*1076 FILLER_0_30_288
*1077 FILLER_0_30_29
*1078 FILLER_0_30_3
*1079 FILLER_0_30_56
*1080 FILLER_0_30_64
*1081 FILLER_0_30_85
*1082 FILLER_0_30_97
*1083 FILLER_0_31_103
*1084 FILLER_0_31_111
*1085 FILLER_0_31_131
*1086 FILLER_0_31_143
*1087 FILLER_0_31_147
*1088 FILLER_0_31_15
*1089 FILLER_0_31_162
*1090 FILLER_0_31_169
*1091 FILLER_0_31_177
*1092 FILLER_0_31_211
*1093 FILLER_0_31_223
*1094 FILLER_0_31_253
*1095 FILLER_0_31_27
*1096 FILLER_0_31_274
*1097 FILLER_0_31_281
*1098 FILLER_0_31_293
*1099 FILLER_0_31_3
*1100 FILLER_0_31_330
*1101 FILLER_0_31_334
*1102 FILLER_0_31_39
*1103 FILLER_0_31_51
*1104 FILLER_0_31_55
*1105 FILLER_0_31_57
*1106 FILLER_0_31_69
*1107 FILLER_0_31_79
*1108 FILLER_0_31_91
*1109 FILLER_0_32_105
*1110 FILLER_0_32_113
*1111 FILLER_0_32_136
*1112 FILLER_0_32_146
*1113 FILLER_0_32_15
*1114 FILLER_0_32_158
*1115 FILLER_0_32_170
*1116 FILLER_0_32_182
*1117 FILLER_0_32_217
*1118 FILLER_0_32_244
*1119 FILLER_0_32_251
*1120 FILLER_0_32_265
*1121 FILLER_0_32_27
*1122 FILLER_0_32_29
*1123 FILLER_0_32_295
*1124 FILLER_0_32_299
*1125 FILLER_0_32_3
*1126 FILLER_0_32_333
*1127 FILLER_0_32_37
*1128 FILLER_0_32_81
*1129 FILLER_0_33_131
*1130 FILLER_0_33_15
*1131 FILLER_0_33_167
*1132 FILLER_0_33_169
*1133 FILLER_0_33_181
*1134 FILLER_0_33_194
*1135 FILLER_0_33_210
*1136 FILLER_0_33_218
*1137 FILLER_0_33_225
*1138 FILLER_0_33_243
*1139 FILLER_0_33_258
*1140 FILLER_0_33_27
*1141 FILLER_0_33_276
*1142 FILLER_0_33_3
*1143 FILLER_0_33_333
*1144 FILLER_0_33_39
*1145 FILLER_0_33_51
*1146 FILLER_0_33_55
*1147 FILLER_0_33_57
*1148 FILLER_0_34_106
*1149 FILLER_0_34_118
*1150 FILLER_0_34_124
*1151 FILLER_0_34_15
*1152 FILLER_0_34_174
*1153 FILLER_0_34_186
*1154 FILLER_0_34_194
*1155 FILLER_0_34_203
*1156 FILLER_0_34_215
*1157 FILLER_0_34_247
*1158 FILLER_0_34_251
*1159 FILLER_0_34_253
*1160 FILLER_0_34_27
*1161 FILLER_0_34_272
*1162 FILLER_0_34_284
*1163 FILLER_0_34_29
*1164 FILLER_0_34_3
*1165 FILLER_0_34_41
*1166 FILLER_0_34_63
*1167 FILLER_0_34_69
*1168 FILLER_0_34_80
*1169 FILLER_0_34_94
*1170 FILLER_0_35_105
*1171 FILLER_0_35_119
*1172 FILLER_0_35_15
*1173 FILLER_0_35_167
*1174 FILLER_0_35_180
*1175 FILLER_0_35_210
*1176 FILLER_0_35_222
*1177 FILLER_0_35_253
*1178 FILLER_0_35_27
*1179 FILLER_0_35_276
*1180 FILLER_0_35_281
*1181 FILLER_0_35_3
*1182 FILLER_0_35_334
*1183 FILLER_0_35_39
*1184 FILLER_0_35_51
*1185 FILLER_0_35_55
*1186 FILLER_0_35_57
*1187 FILLER_0_35_69
*1188 FILLER_0_35_81
*1189 FILLER_0_35_93
*1190 FILLER_0_36_141
*1191 FILLER_0_36_15
*1192 FILLER_0_36_192
*1193 FILLER_0_36_206
*1194 FILLER_0_36_247
*1195 FILLER_0_36_251
*1196 FILLER_0_36_253
*1197 FILLER_0_36_27
*1198 FILLER_0_36_29
*1199 FILLER_0_36_295
*1200 FILLER_0_36_3
*1201 FILLER_0_36_41
*1202 FILLER_0_36_53
*1203 FILLER_0_36_65
*1204 FILLER_0_36_77
*1205 FILLER_0_36_83
*1206 FILLER_0_36_85
*1207 FILLER_0_36_93
*1208 FILLER_0_37_118
*1209 FILLER_0_37_146
*1210 FILLER_0_37_15
*1211 FILLER_0_37_158
*1212 FILLER_0_37_166
*1213 FILLER_0_37_169
*1214 FILLER_0_37_181
*1215 FILLER_0_37_185
*1216 FILLER_0_37_225
*1217 FILLER_0_37_255
*1218 FILLER_0_37_27
*1219 FILLER_0_37_3
*1220 FILLER_0_37_39
*1221 FILLER_0_37_51
*1222 FILLER_0_37_55
*1223 FILLER_0_37_57
*1224 FILLER_0_37_69
*1225 FILLER_0_37_81
*1226 FILLER_0_37_89
*1227 FILLER_0_38_10
*1228 FILLER_0_38_113
*1229 FILLER_0_38_117
*1230 FILLER_0_38_14
*1231 FILLER_0_38_18
*1232 FILLER_0_38_191
*1233 FILLER_0_38_195
*1234 FILLER_0_38_197
*1235 FILLER_0_38_209
*1236 FILLER_0_38_215
*1237 FILLER_0_38_22
*1238 FILLER_0_38_225
*1239 FILLER_0_38_32
*1240 FILLER_0_38_38
*1241 FILLER_0_38_42
*1242 FILLER_0_38_46
*1243 FILLER_0_38_50
*1244 FILLER_0_38_54
*1245 FILLER_0_38_57
*1246 FILLER_0_38_6
*1247 FILLER_0_38_62
*1248 FILLER_0_38_66
*1249 FILLER_0_38_70
*1250 FILLER_0_38_74
*1251 FILLER_0_38_78
*1252 FILLER_0_38_85
*1253 FILLER_0_3_105
*1254 FILLER_0_3_111
*1255 FILLER_0_3_113
*1256 FILLER_0_3_125
*1257 FILLER_0_3_137
*1258 FILLER_0_3_149
*1259 FILLER_0_3_15
*1260 FILLER_0_3_161
*1261 FILLER_0_3_167
*1262 FILLER_0_3_169
*1263 FILLER_0_3_181
*1264 FILLER_0_3_193
*1265 FILLER_0_3_205
*1266 FILLER_0_3_217
*1267 FILLER_0_3_223
*1268 FILLER_0_3_225
*1269 FILLER_0_3_237
*1270 FILLER_0_3_249
*1271 FILLER_0_3_261
*1272 FILLER_0_3_27
*1273 FILLER_0_3_273
*1274 FILLER_0_3_279
*1275 FILLER_0_3_281
*1276 FILLER_0_3_293
*1277 FILLER_0_3_3
*1278 FILLER_0_3_305
*1279 FILLER_0_3_317
*1280 FILLER_0_3_329
*1281 FILLER_0_3_39
*1282 FILLER_0_3_51
*1283 FILLER_0_3_55
*1284 FILLER_0_3_57
*1285 FILLER_0_3_69
*1286 FILLER_0_3_81
*1287 FILLER_0_3_93
*1288 FILLER_0_4_109
*1289 FILLER_0_4_121
*1290 FILLER_0_4_133
*1291 FILLER_0_4_139
*1292 FILLER_0_4_141
*1293 FILLER_0_4_15
*1294 FILLER_0_4_153
*1295 FILLER_0_4_165
*1296 FILLER_0_4_177
*1297 FILLER_0_4_189
*1298 FILLER_0_4_195
*1299 FILLER_0_4_197
*1300 FILLER_0_4_209
*1301 FILLER_0_4_221
*1302 FILLER_0_4_233
*1303 FILLER_0_4_245
*1304 FILLER_0_4_251
*1305 FILLER_0_4_253
*1306 FILLER_0_4_265
*1307 FILLER_0_4_27
*1308 FILLER_0_4_277
*1309 FILLER_0_4_289
*1310 FILLER_0_4_29
*1311 FILLER_0_4_3
*1312 FILLER_0_4_301
*1313 FILLER_0_4_307
*1314 FILLER_0_4_309
*1315 FILLER_0_4_321
*1316 FILLER_0_4_333
*1317 FILLER_0_4_41
*1318 FILLER_0_4_53
*1319 FILLER_0_4_65
*1320 FILLER_0_4_77
*1321 FILLER_0_4_83
*1322 FILLER_0_4_85
*1323 FILLER_0_4_97
*1324 FILLER_0_5_105
*1325 FILLER_0_5_111
*1326 FILLER_0_5_113
*1327 FILLER_0_5_125
*1328 FILLER_0_5_137
*1329 FILLER_0_5_149
*1330 FILLER_0_5_15
*1331 FILLER_0_5_161
*1332 FILLER_0_5_167
*1333 FILLER_0_5_169
*1334 FILLER_0_5_181
*1335 FILLER_0_5_193
*1336 FILLER_0_5_205
*1337 FILLER_0_5_217
*1338 FILLER_0_5_223
*1339 FILLER_0_5_225
*1340 FILLER_0_5_237
*1341 FILLER_0_5_249
*1342 FILLER_0_5_261
*1343 FILLER_0_5_27
*1344 FILLER_0_5_273
*1345 FILLER_0_5_279
*1346 FILLER_0_5_281
*1347 FILLER_0_5_293
*1348 FILLER_0_5_3
*1349 FILLER_0_5_305
*1350 FILLER_0_5_317
*1351 FILLER_0_5_329
*1352 FILLER_0_5_39
*1353 FILLER_0_5_51
*1354 FILLER_0_5_55
*1355 FILLER_0_5_57
*1356 FILLER_0_5_69
*1357 FILLER_0_5_81
*1358 FILLER_0_5_93
*1359 FILLER_0_6_109
*1360 FILLER_0_6_121
*1361 FILLER_0_6_133
*1362 FILLER_0_6_139
*1363 FILLER_0_6_141
*1364 FILLER_0_6_15
*1365 FILLER_0_6_153
*1366 FILLER_0_6_165
*1367 FILLER_0_6_177
*1368 FILLER_0_6_189
*1369 FILLER_0_6_195
*1370 FILLER_0_6_197
*1371 FILLER_0_6_209
*1372 FILLER_0_6_221
*1373 FILLER_0_6_233
*1374 FILLER_0_6_245
*1375 FILLER_0_6_251
*1376 FILLER_0_6_253
*1377 FILLER_0_6_265
*1378 FILLER_0_6_27
*1379 FILLER_0_6_277
*1380 FILLER_0_6_289
*1381 FILLER_0_6_29
*1382 FILLER_0_6_3
*1383 FILLER_0_6_301
*1384 FILLER_0_6_307
*1385 FILLER_0_6_309
*1386 FILLER_0_6_321
*1387 FILLER_0_6_333
*1388 FILLER_0_6_41
*1389 FILLER_0_6_53
*1390 FILLER_0_6_65
*1391 FILLER_0_6_77
*1392 FILLER_0_6_83
*1393 FILLER_0_6_85
*1394 FILLER_0_6_97
*1395 FILLER_0_7_105
*1396 FILLER_0_7_111
*1397 FILLER_0_7_113
*1398 FILLER_0_7_125
*1399 FILLER_0_7_137
*1400 FILLER_0_7_149
*1401 FILLER_0_7_15
*1402 FILLER_0_7_161
*1403 FILLER_0_7_167
*1404 FILLER_0_7_169
*1405 FILLER_0_7_181
*1406 FILLER_0_7_193
*1407 FILLER_0_7_205
*1408 FILLER_0_7_217
*1409 FILLER_0_7_223
*1410 FILLER_0_7_225
*1411 FILLER_0_7_237
*1412 FILLER_0_7_249
*1413 FILLER_0_7_261
*1414 FILLER_0_7_27
*1415 FILLER_0_7_273
*1416 FILLER_0_7_279
*1417 FILLER_0_7_281
*1418 FILLER_0_7_293
*1419 FILLER_0_7_3
*1420 FILLER_0_7_305
*1421 FILLER_0_7_317
*1422 FILLER_0_7_329
*1423 FILLER_0_7_39
*1424 FILLER_0_7_51
*1425 FILLER_0_7_55
*1426 FILLER_0_7_57
*1427 FILLER_0_7_69
*1428 FILLER_0_7_81
*1429 FILLER_0_7_93
*1430 FILLER_0_8_109
*1431 FILLER_0_8_121
*1432 FILLER_0_8_133
*1433 FILLER_0_8_139
*1434 FILLER_0_8_141
*1435 FILLER_0_8_15
*1436 FILLER_0_8_153
*1437 FILLER_0_8_165
*1438 FILLER_0_8_177
*1439 FILLER_0_8_189
*1440 FILLER_0_8_195
*1441 FILLER_0_8_197
*1442 FILLER_0_8_209
*1443 FILLER_0_8_221
*1444 FILLER_0_8_233
*1445 FILLER_0_8_245
*1446 FILLER_0_8_251
*1447 FILLER_0_8_253
*1448 FILLER_0_8_265
*1449 FILLER_0_8_27
*1450 FILLER_0_8_277
*1451 FILLER_0_8_289
*1452 FILLER_0_8_29
*1453 FILLER_0_8_3
*1454 FILLER_0_8_301
*1455 FILLER_0_8_307
*1456 FILLER_0_8_309
*1457 FILLER_0_8_321
*1458 FILLER_0_8_333
*1459 FILLER_0_8_41
*1460 FILLER_0_8_53
*1461 FILLER_0_8_65
*1462 FILLER_0_8_77
*1463 FILLER_0_8_83
*1464 FILLER_0_8_85
*1465 FILLER_0_8_97
*1466 FILLER_0_9_105
*1467 FILLER_0_9_111
*1468 FILLER_0_9_113
*1469 FILLER_0_9_125
*1470 FILLER_0_9_137
*1471 FILLER_0_9_149
*1472 FILLER_0_9_15
*1473 FILLER_0_9_161
*1474 FILLER_0_9_167
*1475 FILLER_0_9_169
*1476 FILLER_0_9_181
*1477 FILLER_0_9_193
*1478 FILLER_0_9_205
*1479 FILLER_0_9_217
*1480 FILLER_0_9_223
*1481 FILLER_0_9_225
*1482 FILLER_0_9_237
*1483 FILLER_0_9_249
*1484 FILLER_0_9_261
*1485 FILLER_0_9_27
*1486 FILLER_0_9_273
*1487 FILLER_0_9_279
*1488 FILLER_0_9_281
*1489 FILLER_0_9_293
*1490 FILLER_0_9_3
*1491 FILLER_0_9_305
*1492 FILLER_0_9_317
*1493 FILLER_0_9_329
*1494 FILLER_0_9_39
*1495 FILLER_0_9_51
*1496 FILLER_0_9_55
*1497 FILLER_0_9_57
*1498 FILLER_0_9_69
*1499 FILLER_0_9_81
*1500 FILLER_0_9_93
*1501 PHY_EDGE_ROW_0_Left_39
*1502 PHY_EDGE_ROW_0_Right_0
*1503 PHY_EDGE_ROW_10_Left_49
*1504 PHY_EDGE_ROW_10_Right_10
*1505 PHY_EDGE_ROW_11_Left_50
*1506 PHY_EDGE_ROW_11_Right_11
*1507 PHY_EDGE_ROW_12_Left_51
*1508 PHY_EDGE_ROW_12_Right_12
*1509 PHY_EDGE_ROW_13_Left_52
*1510 PHY_EDGE_ROW_13_Right_13
*1511 PHY_EDGE_ROW_14_Left_53
*1512 PHY_EDGE_ROW_14_Right_14
*1513 PHY_EDGE_ROW_15_Left_54
*1514 PHY_EDGE_ROW_15_Right_15
*1515 PHY_EDGE_ROW_16_Left_55
*1516 PHY_EDGE_ROW_16_Right_16
*1517 PHY_EDGE_ROW_17_Left_56
*1518 PHY_EDGE_ROW_17_Right_17
*1519 PHY_EDGE_ROW_18_Left_57
*1520 PHY_EDGE_ROW_18_Right_18
*1521 PHY_EDGE_ROW_19_Left_58
*1522 PHY_EDGE_ROW_19_Right_19
*1523 PHY_EDGE_ROW_1_Left_40
*1524 PHY_EDGE_ROW_1_Right_1
*1525 PHY_EDGE_ROW_20_Left_59
*1526 PHY_EDGE_ROW_20_Right_20
*1527 PHY_EDGE_ROW_21_Left_60