*SPEF "ieee 1481-1999"
*DESIGN "tt_um_timer_counter_UGM"
*DATE "17:03:09 Friday April 19, 2024"
*VENDOR "The OpenROAD Project"
*PROGRAM "OpenROAD"
*VERSION "0889970d1790a2617e69f253221b8bd7626e51dc"
*DESIGN_FLOW "NAME_SCOPE LOCAL" "PIN_CAP NONE"
*DIVIDER /
*DELIMITER :
*BUS_DELIMITER []
*T_UNIT 1 NS
*C_UNIT 1 PF
*R_UNIT 1 OHM
*L_UNIT 1 HENRY

*NAME_MAP
*3 clk
*4 ena
*5 rst_n
*6 ui_in[0]
*7 ui_in[1]
*8 ui_in[2]
*9 ui_in[3]
*10 ui_in[4]
*11 ui_in[5]
*12 ui_in[6]
*13 ui_in[7]
*14 uio_in[0]
*15 uio_in[1]
*16 uio_in[2]
*17 uio_in[3]
*18 uio_in[4]
*19 uio_in[5]
*20 uio_in[6]
*21 uio_in[7]
*22 net12
*23 net13
*24 net14
*25 net15
*26 net16
*27 net17
*28 net18
*29 net19
*30 uio_out[0]
*31 uio_out[1]
*32 uio_out[2]
*33 uio_out[3]
*34 net20
*35 net21
*36 net22
*37 net23
*38 uo_out[0]
*39 uo_out[1]
*40 uo_out[2]
*41 uo_out[3]
*42 uo_out[4]
*43 uo_out[5]
*44 uo_out[6]
*45 uo_out[7]
*46 _000_
*47 _001_
*48 _002_
*49 _003_
*50 _004_
*51 _005_
*52 _006_
*53 _007_
*54 _008_
*55 _009_
*56 _010_
*57 _011_
*58 _012_
*59 _013_
*60 _014_
*61 _015_
*62 _016_
*63 _017_
*64 _018_
*65 _019_
*66 _020_
*67 _021_
*68 _022_
*69 _023_
*70 _024_
*71 _025_
*72 _026_
*73 _027_
*74 _028_
*75 _029_
*76 _030_
*77 _031_
*78 _032_
*79 _033_
*80 _034_
*81 _035_
*82 _036_
*83 _037_
*84 _038_
*85 _039_
*86 _040_
*87 _041_
*88 _042_
*89 _043_
*90 _044_
*91 _045_
*92 _046_
*93 _047_
*94 _048_
*95 _049_
*96 _050_
*97 _051_
*98 _052_
*99 _053_
*100 _054_
*101 _055_
*102 _056_
*103 _057_
*104 _058_
*105 _059_
*106 _060_
*107 _061_
*108 _062_
*109 _063_
*110 _064_
*111 _065_
*112 _066_
*113 _067_
*114 _068_
*115 _069_
*116 _070_
*117 _071_
*118 _072_
*119 _073_
*120 _074_
*121 _075_
*122 _076_
*123 _077_
*124 _078_
*125 _079_
*126 _080_
*127 _081_
*128 _082_
*129 _083_
*130 _084_
*131 _085_
*132 _086_
*133 _087_
*134 _088_
*135 _089_
*136 _090_
*137 _091_
*138 _092_
*139 _093_
*140 _094_
*141 _095_
*142 _096_
*143 _097_
*144 _098_
*145 _099_
*146 _100_
*147 _101_
*148 _102_
*149 _103_
*150 _104_
*151 _105_
*152 _106_
*153 _107_
*154 _108_
*155 _109_
*156 _110_
*157 _111_
*158 _112_
*159 _113_
*160 _114_
*161 _115_
*162 _116_
*163 _117_
*164 _118_
*165 _119_
*166 _120_
*167 _121_
*168 _122_
*169 _123_
*170 _124_
*171 _125_
*172 _126_
*173 _127_
*174 _128_
*175 _129_
*176 _130_
*177 _131_
*178 _132_
*179 _133_
*180 _134_
*181 _135_
*182 _136_
*183 _137_
*184 _138_
*185 _139_
*186 _140_
*187 _141_
*188 _142_
*189 _143_
*190 _144_
*191 _145_
*192 _146_
*193 _147_
*194 clknet_0_clk
*195 clknet_2_0__leaf_clk
*196 clknet_2_1__leaf_clk
*197 clknet_2_2__leaf_clk
*198 clknet_2_3__leaf_clk
*199 net1
*200 net10
*201 net11
*202 net2
*203 net24
*204 net25
*205 net26
*206 net27
*207 net28
*208 net29
*209 net3
*210 net30
*211 net31
*212 net32
*213 net33
*214 net34
*215 net35
*216 net36
*217 net37
*218 net38
*219 net39
*220 net4
*221 net40
*222 net41
*223 net42
*224 net43
*225 net44
*226 net45
*227 net46
*228 net47
*229 net48
*230 net49
*231 net5
*232 net50
*233 net51
*234 net52
*235 net53
*236 net54
*237 net55
*238 net56
*239 net57
*240 net58
*241 net59
*242 net6
*243 net60
*244 net61
*245 net7
*246 net8
*247 net9
*248 t0\.c0\.clk
*249 t0\.c0\.q\[0\]
*250 t0\.c0\.q\[1\]
*251 t0\.c0\.q\[2\]
*252 t0\.c0\.q\[3\]
*253 t0\.c1\.q\[0\]
*254 t0\.c1\.q\[1\]
*255 t0\.c1\.q\[2\]
*256 t0\.c1\.q\[3\]
*257 t0\.c2\.q\[0\]
*258 t0\.c2\.q\[1\]
*259 t0\.c2\.q\[2\]
*260 t0\.c2\.q\[3\]
*261 t0\.c3\.q\[0\]
*262 t0\.c3\.q\[1\]
*263 t0\.c3\.q\[2\]
*264 t0\.c3\.q\[3\]
*265 t0\.clk_1Hz
*266 t0\.clk_div_1Hz\[0\]
*267 t0\.clk_div_1Hz\[1\]
*268 t0\.clk_div_1Hz\[2\]
*269 t0\.clk_div_1Hz\[3\]
*270 t0\.clk_div_1Hz\[4\]
*271 t0\.clk_div_1Hz\[5\]
*272 t0\.clk_div_1Hz\[6\]
*273 t0\.clk_div_1Hz\[7\]
*274 t0\.clk_div_1Hz\[8\]
*275 t0\.clk_div_1Hz\[9\]
*276 t0\.d0\.q
*277 t0\.d0\.sreg\[0\]
*278 t0\.d0\.sreg\[1\]
*279 t0\.d0\.sreg\[2\]
*280 t0\.d0\.sreg\[3\]
*281 t0\.d0\.sreg\[4\]
*282 t0\.d0\.sreg\[5\]
*283 t0\.d0\.sreg\[6\]
*284 t0\.d0\.sreg\[7\]
*285 t0\.d1\.q
*286 t0\.d1\.sreg\[0\]
*287 t0\.d1\.sreg\[1\]
*288 t0\.d1\.sreg\[2\]
*289 t0\.d1\.sreg\[3\]
*290 t0\.d1\.sreg\[4\]
*291 t0\.d1\.sreg\[5\]
*292 t0\.d1\.sreg\[6\]
*293 t0\.d1\.sreg\[7\]
*294 t0\.d2\.q
*295 t0\.d2\.sreg\[0\]
*296 t0\.d2\.sreg\[1\]
*297 t0\.d2\.sreg\[2\]
*298 t0\.d2\.sreg\[3\]
*299 t0\.d2\.sreg\[4\]
*300 t0\.d2\.sreg\[5\]
*301 t0\.d2\.sreg\[6\]
*302 t0\.d2\.sreg\[7\]
*303 t0\.enclock_1Hz
*304 t0\.m0\.sel\[0\]
*305 t0\.m0\.sel\[1\]
*306 t0\.mode_lock
*307 t0\.mode_reg
*308 FILLER_0_0_109
*309 FILLER_0_0_113
*310 FILLER_0_0_125
*311 FILLER_0_0_137
*312 FILLER_0_0_141
*313 FILLER_0_0_15
*314 FILLER_0_0_153
*315 FILLER_0_0_165
*316 FILLER_0_0_169
*317 FILLER_0_0_181
*318 FILLER_0_0_193
*319 FILLER_0_0_197
*320 FILLER_0_0_209
*321 FILLER_0_0_221
*322 FILLER_0_0_225
*323 FILLER_0_0_237
*324 FILLER_0_0_249
*325 FILLER_0_0_253
*326 FILLER_0_0_265
*327 FILLER_0_0_27
*328 FILLER_0_0_277
*329 FILLER_0_0_281
*330 FILLER_0_0_29
*331 FILLER_0_0_293
*332 FILLER_0_0_3
*333 FILLER_0_0_305
*334 FILLER_0_0_309
*335 FILLER_0_0_321
*336 FILLER_0_0_333
*337 FILLER_0_0_41
*338 FILLER_0_0_53
*339 FILLER_0_0_57
*340 FILLER_0_0_69
*341 FILLER_0_0_81
*342 FILLER_0_0_85
*343 FILLER_0_0_97
*344 FILLER_0_10_109
*345 FILLER_0_10_121
*346 FILLER_0_10_133
*347 FILLER_0_10_139
*348 FILLER_0_10_141
*349 FILLER_0_10_15
*350 FILLER_0_10_153
*351 FILLER_0_10_165
*352 FILLER_0_10_177
*353 FILLER_0_10_189
*354 FILLER_0_10_195
*355 FILLER_0_10_197
*356 FILLER_0_10_209
*357 FILLER_0_10_221
*358 FILLER_0_10_233
*359 FILLER_0_10_245
*360 FILLER_0_10_251
*361 FILLER_0_10_253
*362 FILLER_0_10_265
*363 FILLER_0_10_27
*364 FILLER_0_10_277
*365 FILLER_0_10_289
*366 FILLER_0_10_29
*367 FILLER_0_10_3
*368 FILLER_0_10_301
*369 FILLER_0_10_307
*370 FILLER_0_10_309
*371 FILLER_0_10_321
*372 FILLER_0_10_333
*373 FILLER_0_10_41
*374 FILLER_0_10_53
*375 FILLER_0_10_65
*376 FILLER_0_10_77
*377 FILLER_0_10_83
*378 FILLER_0_10_85
*379 FILLER_0_10_97
*380 FILLER_0_11_105
*381 FILLER_0_11_111
*382 FILLER_0_11_113
*383 FILLER_0_11_125
*384 FILLER_0_11_137
*385 FILLER_0_11_149
*386 FILLER_0_11_15
*387 FILLER_0_11_161
*388 FILLER_0_11_167
*389 FILLER_0_11_169
*390 FILLER_0_11_181
*391 FILLER_0_11_193
*392 FILLER_0_11_205
*393 FILLER_0_11_217
*394 FILLER_0_11_223
*395 FILLER_0_11_225
*396 FILLER_0_11_237
*397 FILLER_0_11_249
*398 FILLER_0_11_261
*399 FILLER_0_11_27
*400 FILLER_0_11_273
*401 FILLER_0_11_279
*402 FILLER_0_11_281
*403 FILLER_0_11_293
*404 FILLER_0_11_3
*405 FILLER_0_11_305
*406 FILLER_0_11_317
*407 FILLER_0_11_329
*408 FILLER_0_11_39
*409 FILLER_0_11_51
*410 FILLER_0_11_55
*411 FILLER_0_11_57
*412 FILLER_0_11_69
*413 FILLER_0_11_81
*414 FILLER_0_11_93
*415 FILLER_0_12_109
*416 FILLER_0_12_121
*417 FILLER_0_12_133
*418 FILLER_0_12_139
*419 FILLER_0_12_141
*420 FILLER_0_12_15
*421 FILLER_0_12_153
*422 FILLER_0_12_165
*423 FILLER_0_12_177
*424 FILLER_0_12_189
*425 FILLER_0_12_195
*426 FILLER_0_12_197
*427 FILLER_0_12_209
*428 FILLER_0_12_221
*429 FILLER_0_12_233
*430 FILLER_0_12_245
*431 FILLER_0_12_251
*432 FILLER_0_12_253
*433 FILLER_0_12_265
*434 FILLER_0_12_27
*435 FILLER_0_12_277
*436 FILLER_0_12_289
*437 FILLER_0_12_29
*438 FILLER_0_12_3
*439 FILLER_0_12_301
*440 FILLER_0_12_307
*441 FILLER_0_12_309
*442 FILLER_0_12_321
*443 FILLER_0_12_333
*444 FILLER_0_12_41
*445 FILLER_0_12_53
*446 FILLER_0_12_65
*447 FILLER_0_12_77
*448 FILLER_0_12_83
*449 FILLER_0_12_85
*450 FILLER_0_12_97
*451 FILLER_0_13_105
*452 FILLER_0_13_111
*453 FILLER_0_13_113
*454 FILLER_0_13_125
*455 FILLER_0_13_137
*456 FILLER_0_13_149
*457 FILLER_0_13_15
*458 FILLER_0_13_161
*459 FILLER_0_13_167
*460 FILLER_0_13_169
*461 FILLER_0_13_181
*462 FILLER_0_13_193
*463 FILLER_0_13_205
*464 FILLER_0_13_217
*465 FILLER_0_13_223
*466 FILLER_0_13_225
*467 FILLER_0_13_237
*468 FILLER_0_13_249
*469 FILLER_0_13_261
*470 FILLER_0_13_27
*471 FILLER_0_13_273
*472 FILLER_0_13_279
*473 FILLER_0_13_281
*474 FILLER_0_13_293
*475 FILLER_0_13_3
*476 FILLER_0_13_305
*477 FILLER_0_13_317
*478 FILLER_0_13_329
*479 FILLER_0_13_39
*480 FILLER_0_13_51
*481 FILLER_0_13_55
*482 FILLER_0_13_57
*483 FILLER_0_13_69
*484 FILLER_0_13_81
*485 FILLER_0_13_93
*486 FILLER_0_14_109
*487 FILLER_0_14_121
*488 FILLER_0_14_133
*489 FILLER_0_14_139
*490 FILLER_0_14_141
*491 FILLER_0_14_15
*492 FILLER_0_14_153
*493 FILLER_0_14_165
*494 FILLER_0_14_177
*495 FILLER_0_14_189
*496 FILLER_0_14_195
*497 FILLER_0_14_197
*498 FILLER_0_14_209
*499 FILLER_0_14_221
*500 FILLER_0_14_233
*501 FILLER_0_14_245
*502 FILLER_0_14_251
*503 FILLER_0_14_253
*504 FILLER_0_14_265
*505 FILLER_0_14_27
*506 FILLER_0_14_277
*507 FILLER_0_14_289
*508 FILLER_0_14_29
*509 FILLER_0_14_3
*510 FILLER_0_14_301
*511 FILLER_0_14_307
*512 FILLER_0_14_309
*513 FILLER_0_14_321
*514 FILLER_0_14_333
*515 FILLER_0_14_41
*516 FILLER_0_14_53
*517 FILLER_0_14_65
*518 FILLER_0_14_77
*519 FILLER_0_14_83
*520 FILLER_0_14_85
*521 FILLER_0_14_97
*522 FILLER_0_15_105
*523 FILLER_0_15_111
*524 FILLER_0_15_113
*525 FILLER_0_15_125
*526 FILLER_0_15_137
*527 FILLER_0_15_149
*528 FILLER_0_15_15
*529 FILLER_0_15_161
*530 FILLER_0_15_167
*531 FILLER_0_15_169
*532 FILLER_0_15_181
*533 FILLER_0_15_193
*534 FILLER_0_15_205
*535 FILLER_0_15_217
*536 FILLER_0_15_223
*537 FILLER_0_15_225
*538 FILLER_0_15_237
*539 FILLER_0_15_249
*540 FILLER_0_15_261
*541 FILLER_0_15_27
*542 FILLER_0_15_273
*543 FILLER_0_15_279
*544 FILLER_0_15_281
*545 FILLER_0_15_293
*546 FILLER_0_15_3
*547 FILLER_0_15_305
*548 FILLER_0_15_317
*549 FILLER_0_15_329
*550 FILLER_0_15_39
*551 FILLER_0_15_51
*552 FILLER_0_15_55
*553 FILLER_0_15_57
*554 FILLER_0_15_69
*555 FILLER_0_15_81
*556 FILLER_0_15_93
*557 FILLER_0_16_109
*558 FILLER_0_16_121
*559 FILLER_0_16_133
*560 FILLER_0_16_139
*561 FILLER_0_16_141
*562 FILLER_0_16_15
*563 FILLER_0_16_153
*564 FILLER_0_16_165
*565 FILLER_0_16_177
*566 FILLER_0_16_189
*567 FILLER_0_16_195
*568 FILLER_0_16_197
*569 FILLER_0_16_209
*570 FILLER_0_16_221
*571 FILLER_0_16_233
*572 FILLER_0_16_245
*573 FILLER_0_16_251
*574 FILLER_0_16_253
*575 FILLER_0_16_265
*576 FILLER_0_16_27
*577 FILLER_0_16_277
*578 FILLER_0_16_289
*579 FILLER_0_16_29
*580 FILLER_0_16_3
*581 FILLER_0_16_301
*582 FILLER_0_16_307
*583 FILLER_0_16_309
*584 FILLER_0_16_321
*585 FILLER_0_16_333
*586 FILLER_0_16_41
*587 FILLER_0_16_53
*588 FILLER_0_16_65
*589 FILLER_0_16_77
*590 FILLER_0_16_83
*591 FILLER_0_16_85
*592 FILLER_0_16_97
*593 FILLER_0_17_105
*594 FILLER_0_17_111
*595 FILLER_0_17_113
*596 FILLER_0_17_125
*597 FILLER_0_17_137
*598 FILLER_0_17_149
*599 FILLER_0_17_15
*600 FILLER_0_17_161
*601 FILLER_0_17_167
*602 FILLER_0_17_169
*603 FILLER_0_17_181
*604 FILLER_0_17_193
*605 FILLER_0_17_205
*606 FILLER_0_17_217
*607 FILLER_0_17_223
*608 FILLER_0_17_225
*609 FILLER_0_17_237
*610 FILLER_0_17_249
*611 FILLER_0_17_261
*612 FILLER_0_17_27
*613 FILLER_0_17_273
*614 FILLER_0_17_279
*615 FILLER_0_17_281
*616 FILLER_0_17_293
*617 FILLER_0_17_3
*618 FILLER_0_17_305
*619 FILLER_0_17_317
*620 FILLER_0_17_329
*621 FILLER_0_17_39
*622 FILLER_0_17_51
*623 FILLER_0_17_55
*624 FILLER_0_17_57
*625 FILLER_0_17_69
*626 FILLER_0_17_81
*627 FILLER_0_17_93
*628 FILLER_0_18_109
*629 FILLER_0_18_121
*630 FILLER_0_18_133
*631 FILLER_0_18_139
*632 FILLER_0_18_141
*633 FILLER_0_18_15
*634 FILLER_0_18_153
*635 FILLER_0_18_165
*636 FILLER_0_18_177
*637 FILLER_0_18_189
*638 FILLER_0_18_195
*639 FILLER_0_18_197
*640 FILLER_0_18_209
*641 FILLER_0_18_221
*642 FILLER_0_18_233
*643 FILLER_0_18_245
*644 FILLER_0_18_251
*645 FILLER_0_18_253
*646 FILLER_0_18_265
*647 FILLER_0_18_27
*648 FILLER_0_18_277
*649 FILLER_0_18_289
*650 FILLER_0_18_29
*651 FILLER_0_18_3
*652 FILLER_0_18_301
*653 FILLER_0_18_307
*654 FILLER_0_18_309
*655 FILLER_0_18_321
*656 FILLER_0_18_333
*657 FILLER_0_18_41
*658 FILLER_0_18_53
*659 FILLER_0_18_65
*660 FILLER_0_18_77
*661 FILLER_0_18_83
*662 FILLER_0_18_85
*663 FILLER_0_18_97
*664 FILLER_0_19_105
*665 FILLER_0_19_111
*666 FILLER_0_19_113
*667 FILLER_0_19_125
*668 FILLER_0_19_137
*669 FILLER_0_19_149
*670 FILLER_0_19_15
*671 FILLER_0_19_161
*672 FILLER_0_19_167
*673 FILLER_0_19_169
*674 FILLER_0_19_181
*675 FILLER_0_19_193
*676 FILLER_0_19_205
*677 FILLER_0_19_217
*678 FILLER_0_19_223
*679 FILLER_0_19_225
*680 FILLER_0_19_237
*681 FILLER_0_19_249
*682 FILLER_0_19_261
*683 FILLER_0_19_27
*684 FILLER_0_19_273
*685 FILLER_0_19_279
*686 FILLER_0_19_281
*687 FILLER_0_19_293
*688 FILLER_0_19_3
*689 FILLER_0_19_305
*690 FILLER_0_19_317
*691 FILLER_0_19_329
*692 FILLER_0_19_39
*693 FILLER_0_19_51
*694 FILLER_0_19_55
*695 FILLER_0_19_57
*696 FILLER_0_19_69
*697 FILLER_0_19_81
*698 FILLER_0_19_93
*699 FILLER_0_1_105
*700 FILLER_0_1_111
*701 FILLER_0_1_113
*702 FILLER_0_1_125
*703 FILLER_0_1_137
*704 FILLER_0_1_149
*705 FILLER_0_1_15
*706 FILLER_0_1_161
*707 FILLER_0_1_167
*708 FILLER_0_1_169
*709 FILLER_0_1_181
*710 FILLER_0_1_193
*711 FILLER_0_1_205
*712 FILLER_0_1_217
*713 FILLER_0_1_223
*714 FILLER_0_1_225
*715 FILLER_0_1_237
*716 FILLER_0_1_249
*717 FILLER_0_1_261
*718 FILLER_0_1_27
*719 FILLER_0_1_273
*720 FILLER_0_1_279
*721 FILLER_0_1_281
*722 FILLER_0_1_293
*723 FILLER_0_1_3
*724 FILLER_0_1_305
*725 FILLER_0_1_317
*726 FILLER_0_1_329
*727 FILLER_0_1_39
*728 FILLER_0_1_51
*729 FILLER_0_1_55
*730 FILLER_0_1_57
*731 FILLER_0_1_69
*732 FILLER_0_1_81
*733 FILLER_0_1_93
*734 FILLER_0_20_109
*735 FILLER_0_20_121
*736 FILLER_0_20_133
*737 FILLER_0_20_139
*738 FILLER_0_20_141
*739 FILLER_0_20_15
*740 FILLER_0_20_153
*741 FILLER_0_20_165
*742 FILLER_0_20_177
*743 FILLER_0_20_189
*744 FILLER_0_20_195
*745 FILLER_0_20_197
*746 FILLER_0_20_209
*747 FILLER_0_20_221
*748 FILLER_0_20_233
*749 FILLER_0_20_245
*750 FILLER_0_20_251
*751 FILLER_0_20_253
*752 FILLER_0_20_265
*753 FILLER_0_20_27
*754 FILLER_0_20_277
*755 FILLER_0_20_289
*756 FILLER_0_20_29
*757 FILLER_0_20_3
*758 FILLER_0_20_301
*759 FILLER_0_20_307
*760 FILLER_0_20_309
*761 FILLER_0_20_321
*762 FILLER_0_20_333
*763 FILLER_0_20_41
*764 FILLER_0_20_53
*765 FILLER_0_20_65
*766 FILLER_0_20_77
*767 FILLER_0_20_83
*768 FILLER_0_20_85
*769 FILLER_0_20_97
*770 FILLER_0_21_105
*771 FILLER_0_21_111
*772 FILLER_0_21_113
*773 FILLER_0_21_125
*774 FILLER_0_21_137
*775 FILLER_0_21_149
*776 FILLER_0_21_15
*777 FILLER_0_21_161
*778 FILLER_0_21_167
*779 FILLER_0_21_169
*780 FILLER_0_21_181
*781 FILLER_0_21_193
*782 FILLER_0_21_205
*783 FILLER_0_21_217
*784 FILLER_0_21_223
*785 FILLER_0_21_225
*786 FILLER_0_21_237
*787 FILLER_0_21_249
*788 FILLER_0_21_261
*789 FILLER_0_21_27
*790 FILLER_0_21_273
*791 FILLER_0_21_279
*792 FILLER_0_21_281
*793 FILLER_0_21_293
*794 FILLER_0_21_3
*795 FILLER_0_21_305
*796 FILLER_0_21_317
*797 FILLER_0_21_329
*798 FILLER_0_21_39
*799 FILLER_0_21_51
*800 FILLER_0_21_55
*801 FILLER_0_21_57
*802 FILLER_0_21_69
*803 FILLER_0_21_81
*804 FILLER_0_21_93
*805 FILLER_0_22_109
*806 FILLER_0_22_121
*807 FILLER_0_22_133
*808 FILLER_0_22_139
*809 FILLER_0_22_141
*810 FILLER_0_22_15
*811 FILLER_0_22_153
*812 FILLER_0_22_165
*813 FILLER_0_22_177
*814 FILLER_0_22_189
*815 FILLER_0_22_195
*816 FILLER_0_22_197
*817 FILLER_0_22_209
*818 FILLER_0_22_221
*819 FILLER_0_22_233
*820 FILLER_0_22_245
*821 FILLER_0_22_251
*822 FILLER_0_22_253
*823 FILLER_0_22_265
*824 FILLER_0_22_27
*825 FILLER_0_22_277
*826 FILLER_0_22_289
*827 FILLER_0_22_29
*828 FILLER_0_22_3
*829 FILLER_0_22_301
*830 FILLER_0_22_307
*831 FILLER_0_22_309
*832 FILLER_0_22_321
*833 FILLER_0_22_333
*834 FILLER_0_22_41
*835 FILLER_0_22_53
*836 FILLER_0_22_65
*837 FILLER_0_22_77
*838 FILLER_0_22_83
*839 FILLER_0_22_85
*840 FILLER_0_22_97
*841 FILLER_0_23_105
*842 FILLER_0_23_111
*843 FILLER_0_23_113
*844 FILLER_0_23_125
*845 FILLER_0_23_137
*846 FILLER_0_23_149
*847 FILLER_0_23_15
*848 FILLER_0_23_161
*849 FILLER_0_23_167
*850 FILLER_0_23_169
*851 FILLER_0_23_181
*852 FILLER_0_23_193
*853 FILLER_0_23_205
*854 FILLER_0_23_217
*855 FILLER_0_23_223
*856 FILLER_0_23_225
*857 FILLER_0_23_237
*858 FILLER_0_23_249
*859 FILLER_0_23_261
*860 FILLER_0_23_27
*861 FILLER_0_23_273
*862 FILLER_0_23_279
*863 FILLER_0_23_281
*864 FILLER_0_23_293
*865 FILLER_0_23_3
*866 FILLER_0_23_305
*867 FILLER_0_23_317
*868 FILLER_0_23_329
*869 FILLER_0_23_39
*870 FILLER_0_23_51
*871 FILLER_0_23_55
*872 FILLER_0_23_57
*873 FILLER_0_23_69
*874 FILLER_0_23_81
*875 FILLER_0_23_93
*876 FILLER_0_24_108
*877 FILLER_0_24_126
*878 FILLER_0_24_138
*879 FILLER_0_24_141
*880 FILLER_0_24_15
*881 FILLER_0_24_153
*882 FILLER_0_24_165
*883 FILLER_0_24_177
*884 FILLER_0_24_185
*885 FILLER_0_24_192
*886 FILLER_0_24_200
*887 FILLER_0_24_212
*888 FILLER_0_24_224
*889 FILLER_0_24_236
*890 FILLER_0_24_240
*891 FILLER_0_24_253
*892 FILLER_0_24_265
*893 FILLER_0_24_27
*894 FILLER_0_24_277
*895 FILLER_0_24_289
*896 FILLER_0_24_29
*897 FILLER_0_24_3
*898 FILLER_0_24_301
*899 FILLER_0_24_307
*900 FILLER_0_24_309
*901 FILLER_0_24_317
*902 FILLER_0_24_328
*903 FILLER_0_24_334
*904 FILLER_0_24_41
*905 FILLER_0_24_53
*906 FILLER_0_24_65
*907 FILLER_0_24_77
*908 FILLER_0_24_83
*909 FILLER_0_24_85
*910 FILLER_0_24_97
*911 FILLER_0_25_133
*912 FILLER_0_25_145
*913 FILLER_0_25_15
*914 FILLER_0_25_157
*915 FILLER_0_25_165
*916 FILLER_0_25_169
*917 FILLER_0_25_195
*918 FILLER_0_25_215
*919 FILLER_0_25_223
*920 FILLER_0_25_225
*921 FILLER_0_25_249
*922 FILLER_0_25_261
*923 FILLER_0_25_27
*924 FILLER_0_25_273
*925 FILLER_0_25_279
*926 FILLER_0_25_281
*927 FILLER_0_25_285
*928 FILLER_0_25_293
*929 FILLER_0_25_3
*930 FILLER_0_25_328
*931 FILLER_0_25_334
*932 FILLER_0_25_39
*933 FILLER_0_25_51
*934 FILLER_0_25_55
*935 FILLER_0_25_57
*936 FILLER_0_25_69
*937 FILLER_0_25_81
*938 FILLER_0_25_85
*939 FILLER_0_26_141
*940 FILLER_0_26_149
*941 FILLER_0_26_15
*942 FILLER_0_26_157
*943 FILLER_0_26_169
*944 FILLER_0_26_194
*945 FILLER_0_26_197
*946 FILLER_0_26_219
*947 FILLER_0_26_223
*948 FILLER_0_26_265
*949 FILLER_0_26_27
*950 FILLER_0_26_29
*951 FILLER_0_26_294
*952 FILLER_0_26_3
*953 FILLER_0_26_329
*954 FILLER_0_26_41
*955 FILLER_0_26_53
*956 FILLER_0_26_65
*957 FILLER_0_26_77
*958 FILLER_0_27_107
*959 FILLER_0_27_111
*960 FILLER_0_27_120
*961 FILLER_0_27_125
*962 FILLER_0_27_131
*963 FILLER_0_27_143
*964 FILLER_0_27_15
*965 FILLER_0_27_158
*966 FILLER_0_27_166
*967 FILLER_0_27_169
*968 FILLER_0_27_177
*969 FILLER_0_27_222
*970 FILLER_0_27_225
*971 FILLER_0_27_231
*972 FILLER_0_27_249
*973 FILLER_0_27_258
*974 FILLER_0_27_27
*975 FILLER_0_27_3
*976 FILLER_0_27_329
*977 FILLER_0_27_39
*978 FILLER_0_27_48
*979 FILLER_0_27_57
*980 FILLER_0_27_66
*981 FILLER_0_27_78
*982 FILLER_0_27_95
*983 FILLER_0_28_100
*984 FILLER_0_28_108
*985 FILLER_0_28_127
*986 FILLER_0_28_141
*987 FILLER_0_28_15
*988 FILLER_0_28_173
*989 FILLER_0_28_181
*990 FILLER_0_28_194
*991 FILLER_0_28_205
*992 FILLER_0_28_215
*993 FILLER_0_28_227
*994 FILLER_0_28_242
*995 FILLER_0_28_251
*996 FILLER_0_28_262
*997 FILLER_0_28_27
*998 FILLER_0_28_29
*999 FILLER_0_28_292
*1000 FILLER_0_28_3
*1001 FILLER_0_28_332
*1002 FILLER_0_28_55
*1003 FILLER_0_28_88
*1004 FILLER_0_29_107
*1005 FILLER_0_29_111
*1006 FILLER_0_29_119
*1007 FILLER_0_29_141
*1008 FILLER_0_29_15
*1009 FILLER_0_29_175
*1010 FILLER_0_29_187
*1011 FILLER_0_29_199
*1012 FILLER_0_29_203
*1013 FILLER_0_29_253
*1014 FILLER_0_29_268
*1015 FILLER_0_29_27
*1016 FILLER_0_29_281
*1017 FILLER_0_29_289
*1018 FILLER_0_29_3
*1019 FILLER_0_29_332
*1020 FILLER_0_29_54
*1021 FILLER_0_29_95
*1022 FILLER_0_2_109
*1023 FILLER_0_2_121
*1024 FILLER_0_2_133
*1025 FILLER_0_2_139
*1026 FILLER_0_2_141
*1027 FILLER_0_2_15
*1028 FILLER_0_2_153
*1029 FILLER_0_2_165
*1030 FILLER_0_2_177
*1031 FILLER_0_2_189
*1032 FILLER_0_2_195
*1033 FILLER_0_2_197
*1034 FILLER_0_2_209
*1035 FILLER_0_2_221
*1036 FILLER_0_2_233
*1037 FILLER_0_2_245
*1038 FILLER_0_2_251
*1039 FILLER_0_2_253
*1040 FILLER_0_2_265
*1041 FILLER_0_2_27
*1042 FILLER_0_2_277
*1043 FILLER_0_2_289
*1044 FILLER_0_2_29
*1045 FILLER_0_2_3
*1046 FILLER_0_2_301
*1047 FILLER_0_2_307
*1048 FILLER_0_2_309
*1049 FILLER_0_2_321
*1050 FILLER_0_2_333
*1051 FILLER_0_2_41
*1052 FILLER_0_2_53
*1053 FILLER_0_2_65
*1054 FILLER_0_2_77
*1055 FILLER_0_2_83
*1056 FILLER_0_2_85
*1057 FILLER_0_2_97
*1058 FILLER_0_30_127
*1059 FILLER_0_30_139
*1060 FILLER_0_30_141
*1061 FILLER_0_30_15
*1062 FILLER_0_30_158
*1063 FILLER_0_30_180
*1064 FILLER_0_30_192
*1065 FILLER_0_30_197
*1066 FILLER_0_30_209
*1067 FILLER_0_30_215
*1068 FILLER_0_30_27
*1069 FILLER_0_30_29
*1070 FILLER_0_30_293
*1071 FILLER_0_30_3
*1072 FILLER_0_30_35
*1073 FILLER_0_30_55
*1074 FILLER_0_30_63
*1075 FILLER_0_30_73
*1076 FILLER_0_30_85
*1077 FILLER_0_30_97
*1078 FILLER_0_31_131
*1079 FILLER_0_31_143
*1080 FILLER_0_31_15
*1081 FILLER_0_31_163
*1082 FILLER_0_31_167
*1083 FILLER_0_31_172
*1084 FILLER_0_31_210
*1085 FILLER_0_31_222
*1086 FILLER_0_31_245
*1087 FILLER_0_31_251
*1088 FILLER_0_31_27
*1089 FILLER_0_31_297
*1090 FILLER_0_31_3
*1091 FILLER_0_31_301
*1092 FILLER_0_31_330
*1093 FILLER_0_31_334
*1094 FILLER_0_31_39
*1095 FILLER_0_31_48
*1096 FILLER_0_31_57
*1097 FILLER_0_31_69
*1098 FILLER_0_31_79
*1099 FILLER_0_31_91
*1100 FILLER_0_32_105
*1101 FILLER_0_32_135
*1102 FILLER_0_32_139
*1103 FILLER_0_32_141
*1104 FILLER_0_32_15
*1105 FILLER_0_32_153
*1106 FILLER_0_32_165
*1107 FILLER_0_32_177
*1108 FILLER_0_32_189
*1109 FILLER_0_32_215
*1110 FILLER_0_32_247
*1111 FILLER_0_32_251
*1112 FILLER_0_32_253
*1113 FILLER_0_32_27
*1114 FILLER_0_32_29
*1115 FILLER_0_32_295
*1116 FILLER_0_32_299
*1117 FILLER_0_32_3
*1118 FILLER_0_32_37
*1119 FILLER_0_32_61
*1120 FILLER_0_32_67
*1121 FILLER_0_32_77
*1122 FILLER_0_32_83
*1123 FILLER_0_33_107
*1124 FILLER_0_33_113
*1125 FILLER_0_33_125
*1126 FILLER_0_33_137
*1127 FILLER_0_33_147
*1128 FILLER_0_33_15
*1129 FILLER_0_33_162
*1130 FILLER_0_33_169
*1131 FILLER_0_33_207
*1132 FILLER_0_33_216
*1133 FILLER_0_33_225
*1134 FILLER_0_33_244
*1135 FILLER_0_33_254
*1136 FILLER_0_33_262
*1137 FILLER_0_33_27
*1138 FILLER_0_33_289
*1139 FILLER_0_33_297
*1140 FILLER_0_33_3
*1141 FILLER_0_33_331
*1142 FILLER_0_33_57
*1143 FILLER_0_34_106
*1144 FILLER_0_34_118
*1145 FILLER_0_34_126
*1146 FILLER_0_34_141
*1147 FILLER_0_34_15
*1148 FILLER_0_34_178
*1149 FILLER_0_34_197
*1150 FILLER_0_34_209
*1151 FILLER_0_34_221
*1152 FILLER_0_34_247
*1153 FILLER_0_34_251
*1154 FILLER_0_34_253
*1155 FILLER_0_34_257
*1156 FILLER_0_34_27
*1157 FILLER_0_34_276
*1158 FILLER_0_34_29
*1159 FILLER_0_34_3
*1160 FILLER_0_34_37
*1161 FILLER_0_34_49
*1162 FILLER_0_34_57
*1163 FILLER_0_34_79
*1164 FILLER_0_34_83
*1165 FILLER_0_34_94
*1166 FILLER_0_35_105
*1167 FILLER_0_35_119
*1168 FILLER_0_35_15
*1169 FILLER_0_35_164
*1170 FILLER_0_35_180
*1171 FILLER_0_35_210
*1172 FILLER_0_35_222
*1173 FILLER_0_35_253
*1174 FILLER_0_35_27
*1175 FILLER_0_35_277
*1176 FILLER_0_35_281
*1177 FILLER_0_35_3
*1178 FILLER_0_35_333
*1179 FILLER_0_35_39
*1180 FILLER_0_35_51
*1181 FILLER_0_35_55
*1182 FILLER_0_35_57
*1183 FILLER_0_35_69
*1184 FILLER_0_35_81
*1185 FILLER_0_35_93
*1186 FILLER_0_36_141
*1187 FILLER_0_36_15
*1188 FILLER_0_36_192
*1189 FILLER_0_36_248
*1190 FILLER_0_36_253
*1191 FILLER_0_36_27
*1192 FILLER_0_36_29
*1193 FILLER_0_36_3
*1194 FILLER_0_36_41
*1195 FILLER_0_36_53
*1196 FILLER_0_36_65
*1197 FILLER_0_36_77
*1198 FILLER_0_36_83
*1199 FILLER_0_36_85
*1200 FILLER_0_36_93
*1201 FILLER_0_37_118
*1202 FILLER_0_37_137
*1203 FILLER_0_37_145
*1204 FILLER_0_37_15
*1205 FILLER_0_37_169
*1206 FILLER_0_37_225
*1207 FILLER_0_37_256
*1208 FILLER_0_37_27
*1209 FILLER_0_37_278
*1210 FILLER_0_37_3
*1211 FILLER_0_37_321
*1212 FILLER_0_37_333
*1213 FILLER_0_37_39
*1214 FILLER_0_37_51
*1215 FILLER_0_37_55
*1216 FILLER_0_37_57
*1217 FILLER_0_37_69
*1218 FILLER_0_37_81
*1219 FILLER_0_37_89
*1220 FILLER_0_38_10
*1221 FILLER_0_38_135
*1222 FILLER_0_38_139
*1223 FILLER_0_38_14
*1224 FILLER_0_38_141
*1225 FILLER_0_38_167
*1226 FILLER_0_38_18
*1227 FILLER_0_38_191
*1228 FILLER_0_38_195
*1229 FILLER_0_38_197
*1230 FILLER_0_38_209
*1231 FILLER_0_38_215
*1232 FILLER_0_38_22
*1233 FILLER_0_38_225
*1234 FILLER_0_38_289
*1235 FILLER_0_38_32
*1236 FILLER_0_38_38
*1237 FILLER_0_38_42
*1238 FILLER_0_38_46
*1239 FILLER_0_38_50
*1240 FILLER_0_38_54
*1241 FILLER_0_38_57
*1242 FILLER_0_38_6
*1243 FILLER_0_38_62
*1244 FILLER_0_38_66
*1245 FILLER_0_38_70
*1246 FILLER_0_38_74
*1247 FILLER_0_38_78
*1248 FILLER_0_38_85
*1249 FILLER_0_3_105
*1250 FILLER_0_3_111
*1251 FILLER_0_3_113
*1252 FILLER_0_3_125
*1253 FILLER_0_3_137
*1254 FILLER_0_3_149
*1255 FILLER_0_3_15
*1256 FILLER_0_3_161
*1257 FILLER_0_3_167
*1258 FILLER_0_3_169
*1259 FILLER_0_3_181
*1260 FILLER_0_3_193
*1261 FILLER_0_3_205
*1262 FILLER_0_3_217
*1263 FILLER_0_3_223
*1264 FILLER_0_3_225
*1265 FILLER_0_3_237
*1266 FILLER_0_3_249
*1267 FILLER_0_3_261
*1268 FILLER_0_3_27
*1269 FILLER_0_3_273
*1270 FILLER_0_3_279
*1271 FILLER_0_3_281
*1272 FILLER_0_3_293
*1273 FILLER_0_3_3
*1274 FILLER_0_3_305
*1275 FILLER_0_3_317
*1276 FILLER_0_3_329
*1277 FILLER_0_3_39
*1278 FILLER_0_3_51
*1279 FILLER_0_3_55
*1280 FILLER_0_3_57
*1281 FILLER_0_3_69
*1282 FILLER_0_3_81
*1283 FILLER_0_3_93
*1284 FILLER_0_4_109
*1285 FILLER_0_4_121
*1286 FILLER_0_4_133
*1287 FILLER_0_4_139
*1288 FILLER_0_4_141
*1289 FILLER_0_4_15
*1290 FILLER_0_4_153
*1291 FILLER_0_4_165
*1292 FILLER_0_4_177
*1293 FILLER_0_4_189
*1294 FILLER_0_4_195
*1295 FILLER_0_4_197
*1296 FILLER_0_4_209
*1297 FILLER_0_4_221
*1298 FILLER_0_4_233
*1299 FILLER_0_4_245
*1300 FILLER_0_4_251
*1301 FILLER_0_4_253
*1302 FILLER_0_4_265
*1303 FILLER_0_4_27
*1304 FILLER_0_4_277
*1305 FILLER_0_4_289
*1306 FILLER_0_4_29
*1307 FILLER_0_4_3
*1308 FILLER_0_4_301
*1309 FILLER_0_4_307
*1310 FILLER_0_4_309
*1311 FILLER_0_4_321
*1312 FILLER_0_4_333
*1313 FILLER_0_4_41
*1314 FILLER_0_4_53
*1315 FILLER_0_4_65
*1316 FILLER_0_4_77
*1317 FILLER_0_4_83
*1318 FILLER_0_4_85
*1319 FILLER_0_4_97
*1320 FILLER_0_5_105
*1321 FILLER_0_5_111
*1322 FILLER_0_5_113
*1323 FILLER_0_5_125
*1324 FILLER_0_5_137
*1325 FILLER_0_5_149
*1326 FILLER_0_5_15
*1327 FILLER_0_5_161
*1328 FILLER_0_5_167
*1329 FILLER_0_5_169
*1330 FILLER_0_5_181
*1331 FILLER_0_5_193
*1332 FILLER_0_5_205
*1333 FILLER_0_5_217
*1334 FILLER_0_5_223
*1335 FILLER_0_5_225
*1336 FILLER_0_5_237
*1337 FILLER_0_5_249
*1338 FILLER_0_5_261
*1339 FILLER_0_5_27
*1340 FILLER_0_5_273
*1341 FILLER_0_5_279
*1342 FILLER_0_5_281
*1343 FILLER_0_5_293
*1344 FILLER_0_5_3
*1345 FILLER_0_5_305
*1346 FILLER_0_5_317
*1347 FILLER_0_5_329
*1348 FILLER_0_5_39
*1349 FILLER_0_5_51
*1350 FILLER_0_5_55
*1351 FILLER_0_5_57
*1352 FILLER_0_5_69
*1353 FILLER_0_5_81
*1354 FILLER_0_5_93
*1355 FILLER_0_6_109
*1356 FILLER_0_6_121
*1357 FILLER_0_6_133
*1358 FILLER_0_6_139
*1359 FILLER_0_6_141
*1360 FILLER_0_6_15
*1361 FILLER_0_6_153
*1362 FILLER_0_6_165
*1363 FILLER_0_6_177
*1364 FILLER_0_6_189
*1365 FILLER_0_6_195
*1366 FILLER_0_6_197
*1367 FILLER_0_6_209
*1368 FILLER_0_6_221
*1369 FILLER_0_6_233
*1370 FILLER_0_6_245
*1371 FILLER_0_6_251
*1372 FILLER_0_6_253
*1373 FILLER_0_6_265
*1374 FILLER_0_6_27
*1375 FILLER_0_6_277
*1376 FILLER_0_6_289
*1377 FILLER_0_6_29
*1378 FILLER_0_6_3
*1379 FILLER_0_6_301
*1380 FILLER_0_6_307
*1381 FILLER_0_6_309
*1382 FILLER_0_6_321
*1383 FILLER_0_6_333
*1384 FILLER_0_6_41
*1385 FILLER_0_6_53
*1386 FILLER_0_6_65
*1387 FILLER_0_6_77
*1388 FILLER_0_6_83
*1389 FILLER_0_6_85
*1390 FILLER_0_6_97
*1391 FILLER_0_7_105
*1392 FILLER_0_7_111
*1393 FILLER_0_7_113
*1394 FILLER_0_7_125
*1395 FILLER_0_7_137
*1396 FILLER_0_7_149
*1397 FILLER_0_7_15
*1398 FILLER_0_7_161
*1399 FILLER_0_7_167
*1400 FILLER_0_7_169
*1401 FILLER_0_7_181
*1402 FILLER_0_7_193
*1403 FILLER_0_7_205
*1404 FILLER_0_7_217
*1405 FILLER_0_7_223
*1406 FILLER_0_7_225
*1407 FILLER_0_7_237
*1408 FILLER_0_7_249
*1409 FILLER_0_7_261
*1410 FILLER_0_7_27
*1411 FILLER_0_7_273
*1412 FILLER_0_7_279
*1413 FILLER_0_7_281
*1414 FILLER_0_7_293
*1415 FILLER_0_7_3
*1416 FILLER_0_7_305
*1417 FILLER_0_7_317
*1418 FILLER_0_7_329
*1419 FILLER_0_7_39
*1420 FILLER_0_7_51
*1421 FILLER_0_7_55
*1422 FILLER_0_7_57
*1423 FILLER_0_7_69
*1424 FILLER_0_7_81
*1425 FILLER_0_7_93
*1426 FILLER_0_8_109
*1427 FILLER_0_8_121
*1428 FILLER_0_8_133
*1429 FILLER_0_8_139
*1430 FILLER_0_8_141
*1431 FILLER_0_8_15
*1432 FILLER_0_8_153
*1433 FILLER_0_8_165
*1434 FILLER_0_8_177
*1435 FILLER_0_8_189
*1436 FILLER_0_8_195
*1437 FILLER_0_8_197
*1438 FILLER_0_8_209
*1439 FILLER_0_8_221
*1440 FILLER_0_8_233
*1441 FILLER_0_8_245
*1442 FILLER_0_8_251
*1443 FILLER_0_8_253
*1444 FILLER_0_8_265
*1445 FILLER_0_8_27
*1446 FILLER_0_8_277
*1447 FILLER_0_8_289
*1448 FILLER_0_8_29
*1449 FILLER_0_8_3
*1450 FILLER_0_8_301
*1451 FILLER_0_8_307
*1452 FILLER_0_8_309
*1453 FILLER_0_8_321
*1454 FILLER_0_8_333
*1455 FILLER_0_8_41
*1456 FILLER_0_8_53
*1457 FILLER_0_8_65
*1458 FILLER_0_8_77
*1459 FILLER_0_8_83
*1460 FILLER_0_8_85
*1461 FILLER_0_8_97
*1462 FILLER_0_9_105
*1463 FILLER_0_9_111
*1464 FILLER_0_9_113
*1465 FILLER_0_9_125
*1466 FILLER_0_9_137
*1467 FILLER_0_9_149
*1468 FILLER_0_9_15
*1469 FILLER_0_9_161
*1470 FILLER_0_9_167
*1471 FILLER_0_9_169
*1472 FILLER_0_9_181
*1473 FILLER_0_9_193
*1474 FILLER_0_9_205
*1475 FILLER_0_9_217
*1476 FILLER_0_9_223
*1477 FILLER_0_9_225
*1478 FILLER_0_9_237
*1479 FILLER_0_9_249
*1480 FILLER_0_9_261
*1481 FILLER_0_9_27
*1482 FILLER_0_9_273
*1483 FILLER_0_9_279
*1484 FILLER_0_9_281
*1485 FILLER_0_9_293
*1486 FILLER_0_9_3
*1487 FILLER_0_9_305
*1488 FILLER_0_9_317
*1489 FILLER_0_9_329
*1490 FILLER_0_9_39
*1491 FILLER_0_9_51
*1492 FILLER_0_9_55
*1493 FILLER_0_9_57
*1494 FILLER_0_9_69
*1495 FILLER_0_9_81
*1496 FILLER_0_9_93
*1497 PHY_EDGE_ROW_0_Left_39
*1498 PHY_EDGE_ROW_0_Right_0
*1499 PHY_EDGE_ROW_10_Left_49
*1500 PHY_EDGE_ROW_10_Right_10
*1501 PHY_EDGE_ROW_11_Left_50
*1502 PHY_EDGE_ROW_11_Right_11
*1503 PHY_EDGE_ROW_12_Left_51
*1504 PHY_EDGE_ROW_12_Right_12
*1505 PHY_EDGE_ROW_13_Left_52
*1506 PHY_EDGE_ROW_13_Right_13
*1507 PHY_EDGE_ROW_14_Left_53
*1508 PHY_EDGE_ROW_14_Right_14
*1509 PHY_EDGE_ROW_15_Left_54
*1510 PHY_EDGE_ROW_15_Right_15
*1511 PHY_EDGE_ROW_16_Left_55
*1512 PHY_EDGE_ROW_16_Right_16
*1513 PHY_EDGE_ROW_17_Left_56
*1514 PHY_EDGE_ROW_17_Right_17
*1515 PHY_EDGE_ROW_18_Left_57
*1516 PHY_EDGE_ROW_18_Right_18
*1517 PHY_EDGE_ROW_19_Left_58
*1518 PHY_EDGE_ROW_19_Right_19
*1519 PHY_EDGE_ROW_1_Left_40
*1520 PHY_EDGE_ROW_1_Right_1
*1521 PHY_EDGE_ROW_20_Left_59
*1522 PHY_EDGE_ROW_20_Right_20
*1523 PHY_EDGE_ROW_21_Left_60
*1524 PHY_EDGE_ROW_21_Right_21
*1525 PHY_EDGE_ROW_22_Left_61