*SPEF "ieee 1481-1999"
*DESIGN "tt_um_timer_counter_UGM"
*DATE "17:32:36 Friday April 19, 2024"
*VENDOR "The OpenROAD Project"
*PROGRAM "OpenROAD"
*VERSION "0889970d1790a2617e69f253221b8bd7626e51dc"
*DESIGN_FLOW "NAME_SCOPE LOCAL" "PIN_CAP NONE"
*DIVIDER /
*DELIMITER :
*BUS_DELIMITER []
*T_UNIT 1 NS
*C_UNIT 1 PF
*R_UNIT 1 OHM
*L_UNIT 1 HENRY

*NAME_MAP
*3 clk
*4 ena
*5 rst_n
*6 ui_in[0]
*7 ui_in[1]
*8 ui_in[2]
*9 ui_in[3]
*10 ui_in[4]
*11 ui_in[5]
*12 ui_in[6]
*13 ui_in[7]
*14 uio_in[0]
*15 uio_in[1]
*16 uio_in[2]
*17 uio_in[3]
*18 uio_in[4]
*19 uio_in[5]
*20 uio_in[6]
*21 uio_in[7]
*22 net19
*23 net20
*24 net21
*25 net22
*26 net11
*27 net12
*28 net13
*29 net14
*30 uio_out[0]
*31 uio_out[1]
*32 uio_out[2]
*33 uio_out[3]
*34 net15
*35 net16
*36 net17
*37 net18
*38 uo_out[0]
*39 uo_out[1]
*40 uo_out[2]
*41 uo_out[3]
*42 uo_out[4]
*43 uo_out[5]
*44 uo_out[6]
*45 uo_out[7]
*46 _000_
*47 _001_
*48 _002_
*49 _003_
*50 _004_
*51 _005_
*52 _006_
*53 _007_
*54 _008_
*55 _009_
*56 _010_
*57 _011_
*58 _012_
*59 _013_
*60 _014_
*61 _015_
*62 _016_
*63 _017_
*64 _018_
*65 _019_
*66 _020_
*67 _021_
*68 _022_
*69 _023_
*70 _024_
*71 _025_
*72 _026_
*73 _027_
*74 _028_
*75 _029_
*76 _030_
*77 _031_
*78 _032_
*79 _033_
*80 _034_
*81 _035_
*82 _036_
*83 _037_
*84 _038_
*85 _039_
*86 _040_
*87 _041_
*88 _042_
*89 _043_
*90 _044_
*91 _045_
*92 _046_
*93 _047_
*94 _048_
*95 _049_
*96 _050_
*97 _051_
*98 _052_
*99 _053_
*100 _054_
*101 _055_
*102 _056_
*103 _057_
*104 _058_
*105 _059_
*106 _060_
*107 _061_
*108 _062_
*109 _063_
*110 _064_
*111 _065_
*112 _066_
*113 _067_
*114 _068_
*115 _069_
*116 _070_
*117 _071_
*118 _072_
*119 _073_
*120 _074_
*121 _075_
*122 _076_
*123 _077_
*124 _078_
*125 _079_
*126 _080_
*127 _081_
*128 _082_
*129 _083_
*130 _084_
*131 _085_
*132 _086_
*133 _087_
*134 _088_
*135 _089_
*136 _090_
*137 _091_
*138 _092_
*139 _093_
*140 _094_
*141 _095_
*142 _096_
*143 _097_
*144 _098_
*145 _099_
*146 _100_
*147 _101_
*148 _102_
*149 _103_
*150 _104_
*151 _105_
*152 _106_
*153 _107_
*154 _108_
*155 _109_
*156 _110_
*157 _111_
*158 _112_
*159 _113_
*160 _114_
*161 _115_
*162 _116_
*163 _117_
*164 _118_
*165 _119_
*166 _120_
*167 _121_
*168 _122_
*169 _123_
*170 _124_
*171 _125_
*172 _126_
*173 _127_
*174 _128_
*175 _129_
*176 _130_
*177 _131_
*178 _132_
*179 _133_
*180 _134_
*181 _135_
*182 _136_
*183 _137_
*184 _138_
*185 _139_
*186 _140_
*187 _141_
*188 _142_
*189 _143_
*190 _144_
*191 _145_
*192 _146_
*193 _147_
*194 _148_
*195 clknet_0_clk
*196 clknet_2_0__leaf_clk
*197 clknet_2_1__leaf_clk
*198 clknet_2_2__leaf_clk
*199 clknet_2_3__leaf_clk
*200 net1
*201 net10
*202 net2
*203 net23
*204 net24
*205 net25
*206 net26
*207 net27
*208 net28
*209 net29
*210 net3
*211 net30
*212 net31
*213 net32
*214 net33
*215 net34
*216 net35
*217 net36
*218 net37
*219 net38
*220 net39
*221 net4
*222 net40
*223 net41
*224 net42
*225 net43
*226 net44
*227 net45
*228 net46
*229 net47
*230 net48
*231 net49
*232 net5
*233 net50
*234 net51
*235 net52
*236 net53
*237 net54
*238 net55
*239 net56
*240 net57
*241 net58
*242 net59
*243 net6
*244 net60
*245 net61
*246 net62
*247 net7
*248 net8
*249 net9
*250 t0\.c0\.clk
*251 t0\.c0\.q\[0\]
*252 t0\.c0\.q\[1\]
*253 t0\.c0\.q\[2\]
*254 t0\.c0\.q\[3\]
*255 t0\.c1\.q\[0\]
*256 t0\.c1\.q\[1\]
*257 t0\.c1\.q\[2\]
*258 t0\.c1\.q\[3\]
*259 t0\.c2\.q\[0\]
*260 t0\.c2\.q\[1\]
*261 t0\.c2\.q\[2\]
*262 t0\.c2\.q\[3\]
*263 t0\.c3\.q\[0\]
*264 t0\.c3\.q\[1\]
*265 t0\.c3\.q\[2\]
*266 t0\.c3\.q\[3\]
*267 t0\.clk_1Hz
*268 t0\.clk_div_1Hz\[0\]
*269 t0\.clk_div_1Hz\[1\]
*270 t0\.clk_div_1Hz\[2\]
*271 t0\.clk_div_1Hz\[3\]
*272 t0\.clk_div_1Hz\[4\]
*273 t0\.clk_div_1Hz\[5\]
*274 t0\.clk_div_1Hz\[6\]
*275 t0\.clk_div_1Hz\[7\]
*276 t0\.clk_div_1Hz\[8\]
*277 t0\.clk_div_1Hz\[9\]
*278 t0\.d0\.q
*279 t0\.d0\.sreg\[0\]
*280 t0\.d0\.sreg\[1\]
*281 t0\.d0\.sreg\[2\]
*282 t0\.d0\.sreg\[3\]
*283 t0\.d0\.sreg\[4\]
*284 t0\.d0\.sreg\[5\]
*285 t0\.d0\.sreg\[6\]
*286 t0\.d0\.sreg\[7\]
*287 t0\.d1\.q
*288 t0\.d1\.sreg\[0\]
*289 t0\.d1\.sreg\[1\]
*290 t0\.d1\.sreg\[2\]
*291 t0\.d1\.sreg\[3\]
*292 t0\.d1\.sreg\[4\]
*293 t0\.d1\.sreg\[5\]
*294 t0\.d1\.sreg\[6\]
*295 t0\.d1\.sreg\[7\]
*296 t0\.d2\.q
*297 t0\.d2\.sreg\[0\]
*298 t0\.d2\.sreg\[1\]
*299 t0\.d2\.sreg\[2\]
*300 t0\.d2\.sreg\[3\]
*301 t0\.d2\.sreg\[4\]
*302 t0\.d2\.sreg\[5\]
*303 t0\.d2\.sreg\[6\]
*304 t0\.d2\.sreg\[7\]
*305 t0\.enclock_1Hz
*306 t0\.m0\.sel\[0\]
*307 t0\.m0\.sel\[1\]
*308 t0\.mode_lock
*309 t0\.mode_reg
*310 FILLER_0_0_109
*311 FILLER_0_0_113
*312 FILLER_0_0_125
*313 FILLER_0_0_137
*314 FILLER_0_0_141
*315 FILLER_0_0_15
*316 FILLER_0_0_153
*317 FILLER_0_0_165
*318 FILLER_0_0_169
*319 FILLER_0_0_181
*320 FILLER_0_0_193
*321 FILLER_0_0_197
*322 FILLER_0_0_209
*323 FILLER_0_0_221
*324 FILLER_0_0_225
*325 FILLER_0_0_237
*326 FILLER_0_0_249
*327 FILLER_0_0_253
*328 FILLER_0_0_265
*329 FILLER_0_0_27
*330 FILLER_0_0_277
*331 FILLER_0_0_281
*332 FILLER_0_0_29
*333 FILLER_0_0_293
*334 FILLER_0_0_3
*335 FILLER_0_0_305
*336 FILLER_0_0_309
*337 FILLER_0_0_321
*338 FILLER_0_0_333
*339 FILLER_0_0_41
*340 FILLER_0_0_53
*341 FILLER_0_0_57
*342 FILLER_0_0_69
*343 FILLER_0_0_81
*344 FILLER_0_0_85
*345 FILLER_0_0_97
*346 FILLER_0_10_109
*347 FILLER_0_10_121
*348 FILLER_0_10_133
*349 FILLER_0_10_139
*350 FILLER_0_10_141
*351 FILLER_0_10_15
*352 FILLER_0_10_153
*353 FILLER_0_10_165
*354 FILLER_0_10_177
*355 FILLER_0_10_189
*356 FILLER_0_10_195
*357 FILLER_0_10_197
*358 FILLER_0_10_209
*359 FILLER_0_10_221
*360 FILLER_0_10_233
*361 FILLER_0_10_245
*362 FILLER_0_10_251
*363 FILLER_0_10_253
*364 FILLER_0_10_265
*365 FILLER_0_10_27
*366 FILLER_0_10_277
*367 FILLER_0_10_289
*368 FILLER_0_10_29
*369 FILLER_0_10_3
*370 FILLER_0_10_301
*371 FILLER_0_10_307
*372 FILLER_0_10_309
*373 FILLER_0_10_321
*374 FILLER_0_10_333
*375 FILLER_0_10_41
*376 FILLER_0_10_53
*377 FILLER_0_10_65
*378 FILLER_0_10_77
*379 FILLER_0_10_83
*380 FILLER_0_10_85
*381 FILLER_0_10_97
*382 FILLER_0_11_105
*383 FILLER_0_11_111
*384 FILLER_0_11_113
*385 FILLER_0_11_125
*386 FILLER_0_11_137
*387 FILLER_0_11_149
*388 FILLER_0_11_15
*389 FILLER_0_11_161
*390 FILLER_0_11_167
*391 FILLER_0_11_169
*392 FILLER_0_11_181
*393 FILLER_0_11_193
*394 FILLER_0_11_205
*395 FILLER_0_11_217
*396 FILLER_0_11_223
*397 FILLER_0_11_225
*398 FILLER_0_11_237
*399 FILLER_0_11_249
*400 FILLER_0_11_261
*401 FILLER_0_11_27
*402 FILLER_0_11_273
*403 FILLER_0_11_279
*404 FILLER_0_11_281
*405 FILLER_0_11_293
*406 FILLER_0_11_3
*407 FILLER_0_11_305
*408 FILLER_0_11_317
*409 FILLER_0_11_329
*410 FILLER_0_11_39
*411 FILLER_0_11_51
*412 FILLER_0_11_55
*413 FILLER_0_11_57
*414 FILLER_0_11_69
*415 FILLER_0_11_81
*416 FILLER_0_11_93
*417 FILLER_0_12_109
*418 FILLER_0_12_121
*419 FILLER_0_12_133
*420 FILLER_0_12_139
*421 FILLER_0_12_141
*422 FILLER_0_12_15
*423 FILLER_0_12_153
*424 FILLER_0_12_165
*425 FILLER_0_12_177
*426 FILLER_0_12_189
*427 FILLER_0_12_195
*428 FILLER_0_12_197
*429 FILLER_0_12_209
*430 FILLER_0_12_221
*431 FILLER_0_12_233
*432 FILLER_0_12_245
*433 FILLER_0_12_251
*434 FILLER_0_12_253
*435 FILLER_0_12_265
*436 FILLER_0_12_27
*437 FILLER_0_12_277
*438 FILLER_0_12_289
*439 FILLER_0_12_29
*440 FILLER_0_12_3
*441 FILLER_0_12_301
*442 FILLER_0_12_307
*443 FILLER_0_12_309
*444 FILLER_0_12_321
*445 FILLER_0_12_333
*446 FILLER_0_12_41
*447 FILLER_0_12_53
*448 FILLER_0_12_65
*449 FILLER_0_12_77
*450 FILLER_0_12_83
*451 FILLER_0_12_85
*452 FILLER_0_12_97
*453 FILLER_0_13_105
*454 FILLER_0_13_111
*455 FILLER_0_13_113
*456 FILLER_0_13_125
*457 FILLER_0_13_137
*458 FILLER_0_13_149
*459 FILLER_0_13_15
*460 FILLER_0_13_161
*461 FILLER_0_13_167
*462 FILLER_0_13_169
*463 FILLER_0_13_181
*464 FILLER_0_13_193
*465 FILLER_0_13_205
*466 FILLER_0_13_217
*467 FILLER_0_13_223
*468 FILLER_0_13_225
*469 FILLER_0_13_237
*470 FILLER_0_13_249
*471 FILLER_0_13_261
*472 FILLER_0_13_27
*473 FILLER_0_13_273
*474 FILLER_0_13_279
*475 FILLER_0_13_281
*476 FILLER_0_13_293
*477 FILLER_0_13_3
*478 FILLER_0_13_305
*479 FILLER_0_13_317
*480 FILLER_0_13_329
*481 FILLER_0_13_39
*482 FILLER_0_13_51
*483 FILLER_0_13_55
*484 FILLER_0_13_57
*485 FILLER_0_13_69
*486 FILLER_0_13_81
*487 FILLER_0_13_93
*488 FILLER_0_14_109
*489 FILLER_0_14_121
*490 FILLER_0_14_133
*491 FILLER_0_14_139
*492 FILLER_0_14_141
*493 FILLER_0_14_15
*494 FILLER_0_14_153
*495 FILLER_0_14_165
*496 FILLER_0_14_177
*497 FILLER_0_14_189
*498 FILLER_0_14_195
*499 FILLER_0_14_197
*500 FILLER_0_14_209
*501 FILLER_0_14_221
*502 FILLER_0_14_233
*503 FILLER_0_14_245
*504 FILLER_0_14_251
*505 FILLER_0_14_253
*506 FILLER_0_14_265
*507 FILLER_0_14_27
*508 FILLER_0_14_277
*509 FILLER_0_14_289
*510 FILLER_0_14_29
*511 FILLER_0_14_3
*512 FILLER_0_14_301
*513 FILLER_0_14_307
*514 FILLER_0_14_309
*515 FILLER_0_14_321
*516 FILLER_0_14_333
*517 FILLER_0_14_41
*518 FILLER_0_14_53
*519 FILLER_0_14_65
*520 FILLER_0_14_77
*521 FILLER_0_14_83
*522 FILLER_0_14_85
*523 FILLER_0_14_97
*524 FILLER_0_15_105
*525 FILLER_0_15_111
*526 FILLER_0_15_113
*527 FILLER_0_15_125
*528 FILLER_0_15_137
*529 FILLER_0_15_149
*530 FILLER_0_15_15
*531 FILLER_0_15_161
*532 FILLER_0_15_167
*533 FILLER_0_15_169
*534 FILLER_0_15_181
*535 FILLER_0_15_193
*536 FILLER_0_15_205
*537 FILLER_0_15_217
*538 FILLER_0_15_223
*539 FILLER_0_15_225
*540 FILLER_0_15_237
*541 FILLER_0_15_249
*542 FILLER_0_15_261
*543 FILLER_0_15_27
*544 FILLER_0_15_273
*545 FILLER_0_15_279
*546 FILLER_0_15_281
*547 FILLER_0_15_293
*548 FILLER_0_15_3
*549 FILLER_0_15_305
*550 FILLER_0_15_317
*551 FILLER_0_15_329
*552 FILLER_0_15_39
*553 FILLER_0_15_51
*554 FILLER_0_15_55
*555 FILLER_0_15_57
*556 FILLER_0_15_69
*557 FILLER_0_15_81
*558 FILLER_0_15_93
*559 FILLER_0_16_109
*560 FILLER_0_16_121
*561 FILLER_0_16_133
*562 FILLER_0_16_139
*563 FILLER_0_16_141
*564 FILLER_0_16_15
*565 FILLER_0_16_153
*566 FILLER_0_16_165
*567 FILLER_0_16_177
*568 FILLER_0_16_189
*569 FILLER_0_16_195
*570 FILLER_0_16_197
*571 FILLER_0_16_209
*572 FILLER_0_16_221
*573 FILLER_0_16_233
*574 FILLER_0_16_245
*575 FILLER_0_16_251
*576 FILLER_0_16_253
*577 FILLER_0_16_265
*578 FILLER_0_16_27
*579 FILLER_0_16_277
*580 FILLER_0_16_289
*581 FILLER_0_16_29
*582 FILLER_0_16_3
*583 FILLER_0_16_301
*584 FILLER_0_16_307
*585 FILLER_0_16_309
*586 FILLER_0_16_321
*587 FILLER_0_16_333
*588 FILLER_0_16_41
*589 FILLER_0_16_53
*590 FILLER_0_16_65
*591 FILLER_0_16_77
*592 FILLER_0_16_83
*593 FILLER_0_16_85
*594 FILLER_0_16_97
*595 FILLER_0_17_105
*596 FILLER_0_17_111
*597 FILLER_0_17_113
*598 FILLER_0_17_125
*599 FILLER_0_17_137
*600 FILLER_0_17_149
*601 FILLER_0_17_15
*602 FILLER_0_17_161
*603 FILLER_0_17_167
*604 FILLER_0_17_169
*605 FILLER_0_17_181
*606 FILLER_0_17_193
*607 FILLER_0_17_205
*608 FILLER_0_17_217
*609 FILLER_0_17_223
*610 FILLER_0_17_225
*611 FILLER_0_17_237
*612 FILLER_0_17_249
*613 FILLER_0_17_261
*614 FILLER_0_17_27
*615 FILLER_0_17_273
*616 FILLER_0_17_279
*617 FILLER_0_17_281
*618 FILLER_0_17_293
*619 FILLER_0_17_3
*620 FILLER_0_17_305
*621 FILLER_0_17_317
*622 FILLER_0_17_329
*623 FILLER_0_17_39
*624 FILLER_0_17_51
*625 FILLER_0_17_55
*626 FILLER_0_17_57
*627 FILLER_0_17_69
*628 FILLER_0_17_81
*629 FILLER_0_17_93
*630 FILLER_0_18_109
*631 FILLER_0_18_121
*632 FILLER_0_18_133
*633 FILLER_0_18_139
*634 FILLER_0_18_141
*635 FILLER_0_18_15
*636 FILLER_0_18_153
*637 FILLER_0_18_165
*638 FILLER_0_18_177
*639 FILLER_0_18_189
*640 FILLER_0_18_195
*641 FILLER_0_18_197
*642 FILLER_0_18_209
*643 FILLER_0_18_221
*644 FILLER_0_18_233
*645 FILLER_0_18_245
*646 FILLER_0_18_251
*647 FILLER_0_18_253
*648 FILLER_0_18_265
*649 FILLER_0_18_27
*650 FILLER_0_18_277
*651 FILLER_0_18_289
*652 FILLER_0_18_29
*653 FILLER_0_18_3
*654 FILLER_0_18_301
*655 FILLER_0_18_307
*656 FILLER_0_18_309
*657 FILLER_0_18_321
*658 FILLER_0_18_333
*659 FILLER_0_18_41
*660 FILLER_0_18_53
*661 FILLER_0_18_65
*662 FILLER_0_18_77
*663 FILLER_0_18_83
*664 FILLER_0_18_85
*665 FILLER_0_18_97
*666 FILLER_0_19_105
*667 FILLER_0_19_111
*668 FILLER_0_19_113
*669 FILLER_0_19_125
*670 FILLER_0_19_137
*671 FILLER_0_19_149
*672 FILLER_0_19_15
*673 FILLER_0_19_161
*674 FILLER_0_19_167
*675 FILLER_0_19_169
*676 FILLER_0_19_181
*677 FILLER_0_19_193
*678 FILLER_0_19_205
*679 FILLER_0_19_217
*680 FILLER_0_19_223
*681 FILLER_0_19_225
*682 FILLER_0_19_237
*683 FILLER_0_19_249
*684 FILLER_0_19_261
*685 FILLER_0_19_27
*686 FILLER_0_19_273
*687 FILLER_0_19_279
*688 FILLER_0_19_281
*689 FILLER_0_19_293
*690 FILLER_0_19_3
*691 FILLER_0_19_305
*692 FILLER_0_19_317
*693 FILLER_0_19_329
*694 FILLER_0_19_39
*695 FILLER_0_19_51
*696 FILLER_0_19_55
*697 FILLER_0_19_57
*698 FILLER_0_19_69
*699 FILLER_0_19_81
*700 FILLER_0_19_93
*701 FILLER_0_1_105
*702 FILLER_0_1_111
*703 FILLER_0_1_113
*704 FILLER_0_1_125
*705 FILLER_0_1_137
*706 FILLER_0_1_149
*707 FILLER_0_1_15
*708 FILLER_0_1_161
*709 FILLER_0_1_167
*710 FILLER_0_1_169
*711 FILLER_0_1_181
*712 FILLER_0_1_193
*713 FILLER_0_1_205
*714 FILLER_0_1_217
*715 FILLER_0_1_223
*716 FILLER_0_1_225
*717 FILLER_0_1_237
*718 FILLER_0_1_249
*719 FILLER_0_1_261
*720 FILLER_0_1_27
*721 FILLER_0_1_273
*722 FILLER_0_1_279
*723 FILLER_0_1_281
*724 FILLER_0_1_293
*725 FILLER_0_1_3
*726 FILLER_0_1_305
*727 FILLER_0_1_317
*728 FILLER_0_1_329
*729 FILLER_0_1_39
*730 FILLER_0_1_51
*731 FILLER_0_1_55
*732 FILLER_0_1_57
*733 FILLER_0_1_69
*734 FILLER_0_1_81
*735 FILLER_0_1_93
*736 FILLER_0_20_109
*737 FILLER_0_20_121
*738 FILLER_0_20_133
*739 FILLER_0_20_139
*740 FILLER_0_20_141
*741 FILLER_0_20_15
*742 FILLER_0_20_153
*743 FILLER_0_20_165
*744 FILLER_0_20_177
*745 FILLER_0_20_189
*746 FILLER_0_20_195
*747 FILLER_0_20_197
*748 FILLER_0_20_209
*749 FILLER_0_20_221
*750 FILLER_0_20_233
*751 FILLER_0_20_245
*752 FILLER_0_20_251
*753 FILLER_0_20_253
*754 FILLER_0_20_265
*755 FILLER_0_20_27
*756 FILLER_0_20_277
*757 FILLER_0_20_289
*758 FILLER_0_20_29
*759 FILLER_0_20_3
*760 FILLER_0_20_301
*761 FILLER_0_20_307
*762 FILLER_0_20_309
*763 FILLER_0_20_321
*764 FILLER_0_20_333
*765 FILLER_0_20_41
*766 FILLER_0_20_53
*767 FILLER_0_20_65
*768 FILLER_0_20_77
*769 FILLER_0_20_83
*770 FILLER_0_20_85
*771 FILLER_0_20_97
*772 FILLER_0_21_105
*773 FILLER_0_21_111
*774 FILLER_0_21_113
*775 FILLER_0_21_125
*776 FILLER_0_21_137
*777 FILLER_0_21_149
*778 FILLER_0_21_15
*779 FILLER_0_21_161
*780 FILLER_0_21_167
*781 FILLER_0_21_169
*782 FILLER_0_21_181
*783 FILLER_0_21_193
*784 FILLER_0_21_205
*785 FILLER_0_21_217
*786 FILLER_0_21_223
*787 FILLER_0_21_225
*788 FILLER_0_21_237
*789 FILLER_0_21_249
*790 FILLER_0_21_261
*791 FILLER_0_21_27
*792 FILLER_0_21_273
*793 FILLER_0_21_279
*794 FILLER_0_21_281
*795 FILLER_0_21_293
*796 FILLER_0_21_3
*797 FILLER_0_21_305
*798 FILLER_0_21_317
*799 FILLER_0_21_329
*800 FILLER_0_21_39
*801 FILLER_0_21_51
*802 FILLER_0_21_55
*803 FILLER_0_21_57
*804 FILLER_0_21_69
*805 FILLER_0_21_81
*806 FILLER_0_21_93
*807 FILLER_0_22_120
*808 FILLER_0_22_132
*809 FILLER_0_22_141
*810 FILLER_0_22_15
*811 FILLER_0_22_153
*812 FILLER_0_22_165
*813 FILLER_0_22_177
*814 FILLER_0_22_189
*815 FILLER_0_22_195
*816 FILLER_0_22_197
*817 FILLER_0_22_209
*818 FILLER_0_22_221
*819 FILLER_0_22_233
*820 FILLER_0_22_245
*821 FILLER_0_22_251
*822 FILLER_0_22_253
*823 FILLER_0_22_265
*824 FILLER_0_22_27
*825 FILLER_0_22_277
*826 FILLER_0_22_289
*827 FILLER_0_22_29
*828 FILLER_0_22_3
*829 FILLER_0_22_301
*830 FILLER_0_22_307
*831 FILLER_0_22_309
*832 FILLER_0_22_321
*833 FILLER_0_22_333
*834 FILLER_0_22_41
*835 FILLER_0_22_53
*836 FILLER_0_22_65
*837 FILLER_0_22_77
*838 FILLER_0_22_83
*839 FILLER_0_22_85
*840 FILLER_0_22_97
*841 FILLER_0_23_105
*842 FILLER_0_23_111
*843 FILLER_0_23_113
*844 FILLER_0_23_119
*845 FILLER_0_23_131
*846 FILLER_0_23_143
*847 FILLER_0_23_15
*848 FILLER_0_23_155
*849 FILLER_0_23_167
*850 FILLER_0_23_169
*851 FILLER_0_23_181
*852 FILLER_0_23_193
*853 FILLER_0_23_205
*854 FILLER_0_23_217
*855 FILLER_0_23_223
*856 FILLER_0_23_225
*857 FILLER_0_23_237
*858 FILLER_0_23_249
*859 FILLER_0_23_261
*860 FILLER_0_23_27
*861 FILLER_0_23_273
*862 FILLER_0_23_279
*863 FILLER_0_23_281
*864 FILLER_0_23_293
*865 FILLER_0_23_3
*866 FILLER_0_23_305
*867 FILLER_0_23_317
*868 FILLER_0_23_329
*869 FILLER_0_23_39
*870 FILLER_0_23_51
*871 FILLER_0_23_55
*872 FILLER_0_23_57
*873 FILLER_0_23_69
*874 FILLER_0_23_81
*875 FILLER_0_23_93
*876 FILLER_0_24_126
*877 FILLER_0_24_137
*878 FILLER_0_24_141
*879 FILLER_0_24_15
*880 FILLER_0_24_153
*881 FILLER_0_24_165
*882 FILLER_0_24_177
*883 FILLER_0_24_185
*884 FILLER_0_24_191
*885 FILLER_0_24_195
*886 FILLER_0_24_197
*887 FILLER_0_24_209
*888 FILLER_0_24_221
*889 FILLER_0_24_226
*890 FILLER_0_24_238
*891 FILLER_0_24_242
*892 FILLER_0_24_250
*893 FILLER_0_24_253
*894 FILLER_0_24_265
*895 FILLER_0_24_27
*896 FILLER_0_24_277
*897 FILLER_0_24_289
*898 FILLER_0_24_29
*899 FILLER_0_24_3
*900 FILLER_0_24_301
*901 FILLER_0_24_307
*902 FILLER_0_24_309
*903 FILLER_0_24_321
*904 FILLER_0_24_333
*905 FILLER_0_24_41
*906 FILLER_0_24_53
*907 FILLER_0_24_65
*908 FILLER_0_24_77
*909 FILLER_0_24_83
*910 FILLER_0_24_85
*911 FILLER_0_24_97
*912 FILLER_0_25_105
*913 FILLER_0_25_119
*914 FILLER_0_25_147
*915 FILLER_0_25_15
*916 FILLER_0_25_159
*917 FILLER_0_25_167
*918 FILLER_0_25_169
*919 FILLER_0_25_177
*920 FILLER_0_25_201
*921 FILLER_0_25_223
*922 FILLER_0_25_233
*923 FILLER_0_25_255
*924 FILLER_0_25_261
*925 FILLER_0_25_27
*926 FILLER_0_25_273
*927 FILLER_0_25_279
*928 FILLER_0_25_288
*929 FILLER_0_25_3
*930 FILLER_0_25_319
*931 FILLER_0_25_328
*932 FILLER_0_25_334
*933 FILLER_0_25_39
*934 FILLER_0_25_51
*935 FILLER_0_25_55
*936 FILLER_0_25_60
*937 FILLER_0_25_84
*938 FILLER_0_25_96
*939 FILLER_0_26_109
*940 FILLER_0_26_123
*941 FILLER_0_26_130
*942 FILLER_0_26_138
*943 FILLER_0_26_141
*944 FILLER_0_26_15
*945 FILLER_0_26_162
*946 FILLER_0_26_170
*947 FILLER_0_26_228
*948 FILLER_0_26_269
*949 FILLER_0_26_27
*950 FILLER_0_26_29
*951 FILLER_0_26_292
*952 FILLER_0_26_3
*953 FILLER_0_26_307
*954 FILLER_0_26_329
*955 FILLER_0_26_41
*956 FILLER_0_26_70
*957 FILLER_0_26_82
*958 FILLER_0_26_85
*959 FILLER_0_26_97
*960 FILLER_0_27_101
*961 FILLER_0_27_109
*962 FILLER_0_27_119
*963 FILLER_0_27_131
*964 FILLER_0_27_143
*965 FILLER_0_27_15
*966 FILLER_0_27_167
*967 FILLER_0_27_169
*968 FILLER_0_27_193
*969 FILLER_0_27_202
*970 FILLER_0_27_223
*971 FILLER_0_27_230
*972 FILLER_0_27_249
*973 FILLER_0_27_257
*974 FILLER_0_27_27
*975 FILLER_0_27_289
*976 FILLER_0_27_3
*977 FILLER_0_27_308
*978 FILLER_0_27_329
*979 FILLER_0_27_39
*980 FILLER_0_27_51
*981 FILLER_0_27_55
*982 FILLER_0_27_67
*983 FILLER_0_27_81
*984 FILLER_0_27_93
*985 FILLER_0_28_132
*986 FILLER_0_28_148
*987 FILLER_0_28_15
*988 FILLER_0_28_154
*989 FILLER_0_28_164
*990 FILLER_0_28_176
*991 FILLER_0_28_188
*992 FILLER_0_28_203
*993 FILLER_0_28_209
*994 FILLER_0_28_234
*995 FILLER_0_28_246
*996 FILLER_0_28_250
*997 FILLER_0_28_27
*998 FILLER_0_28_29
*999 FILLER_0_28_3
*1000 FILLER_0_28_41
*1001 FILLER_0_28_49
*1002 FILLER_0_28_56
*1003 FILLER_0_28_69
*1004 FILLER_0_28_79
*1005 FILLER_0_28_83
*1006 FILLER_0_28_94
*1007 FILLER_0_29_106
*1008 FILLER_0_29_111
*1009 FILLER_0_29_117
*1010 FILLER_0_29_144
*1011 FILLER_0_29_15
*1012 FILLER_0_29_169
*1013 FILLER_0_29_181
*1014 FILLER_0_29_193
*1015 FILLER_0_29_205
*1016 FILLER_0_29_217
*1017 FILLER_0_29_223
*1018 FILLER_0_29_225
*1019 FILLER_0_29_233
*1020 FILLER_0_29_247
*1021 FILLER_0_29_257
*1022 FILLER_0_29_269
*1023 FILLER_0_29_27
*1024 FILLER_0_29_277
*1025 FILLER_0_29_289
*1026 FILLER_0_29_293
*1027 FILLER_0_29_3
*1028 FILLER_0_29_334
*1029 FILLER_0_29_39
*1030 FILLER_0_29_47
*1031 FILLER_0_29_55
*1032 FILLER_0_29_97
*1033 FILLER_0_2_109
*1034 FILLER_0_2_121
*1035 FILLER_0_2_133
*1036 FILLER_0_2_139
*1037 FILLER_0_2_141
*1038 FILLER_0_2_15
*1039 FILLER_0_2_153
*1040 FILLER_0_2_165
*1041 FILLER_0_2_177
*1042 FILLER_0_2_189
*1043 FILLER_0_2_195
*1044 FILLER_0_2_197
*1045 FILLER_0_2_209
*1046 FILLER_0_2_221
*1047 FILLER_0_2_233
*1048 FILLER_0_2_245
*1049 FILLER_0_2_251
*1050 FILLER_0_2_253
*1051 FILLER_0_2_265
*1052 FILLER_0_2_27
*1053 FILLER_0_2_277
*1054 FILLER_0_2_289
*1055 FILLER_0_2_29
*1056 FILLER_0_2_3
*1057 FILLER_0_2_301
*1058 FILLER_0_2_307
*1059 FILLER_0_2_309
*1060 FILLER_0_2_321
*1061 FILLER_0_2_333
*1062 FILLER_0_2_41
*1063 FILLER_0_2_53
*1064 FILLER_0_2_65
*1065 FILLER_0_2_77
*1066 FILLER_0_2_83
*1067 FILLER_0_2_85
*1068 FILLER_0_2_97
*1069 FILLER_0_30_109
*1070 FILLER_0_30_128
*1071 FILLER_0_30_15
*1072 FILLER_0_30_176
*1073 FILLER_0_30_189
*1074 FILLER_0_30_195
*1075 FILLER_0_30_220
*1076 FILLER_0_30_226
*1077 FILLER_0_30_261
*1078 FILLER_0_30_27
*1079 FILLER_0_30_29
*1080 FILLER_0_30_295
*1081 FILLER_0_30_299
*1082 FILLER_0_30_3
*1083 FILLER_0_30_329
*1084 FILLER_0_30_41
*1085 FILLER_0_30_53
*1086 FILLER_0_30_58
*1087 FILLER_0_30_79
*1088 FILLER_0_30_83
*1089 FILLER_0_30_85
*1090 FILLER_0_30_97
*1091 FILLER_0_31_134
*1092 FILLER_0_31_15
*1093 FILLER_0_31_157
*1094 FILLER_0_31_169
*1095 FILLER_0_31_181
*1096 FILLER_0_31_203
*1097 FILLER_0_31_225
*1098 FILLER_0_31_234
*1099 FILLER_0_31_27
*1100 FILLER_0_31_3
*1101 FILLER_0_31_334
*1102 FILLER_0_31_57
*1103 FILLER_0_31_68
*1104 FILLER_0_31_80
*1105 FILLER_0_31_92
*1106 FILLER_0_32_105
*1107 FILLER_0_32_113
*1108 FILLER_0_32_137
*1109 FILLER_0_32_141
*1110 FILLER_0_32_149
*1111 FILLER_0_32_15
*1112 FILLER_0_32_154
*1113 FILLER_0_32_166
*1114 FILLER_0_32_178
*1115 FILLER_0_32_185
*1116 FILLER_0_32_194
*1117 FILLER_0_32_206
*1118 FILLER_0_32_213
*1119 FILLER_0_32_221
*1120 FILLER_0_32_253
*1121 FILLER_0_32_27
*1122 FILLER_0_32_29
*1123 FILLER_0_32_298
*1124 FILLER_0_32_3
*1125 FILLER_0_32_309
*1126 FILLER_0_32_33
*1127 FILLER_0_32_333
*1128 FILLER_0_32_69
*1129 FILLER_0_32_75
*1130 FILLER_0_32_80
*1131 FILLER_0_33_108
*1132 FILLER_0_33_117
*1133 FILLER_0_33_129
*1134 FILLER_0_33_146
*1135 FILLER_0_33_15
*1136 FILLER_0_33_158
*1137 FILLER_0_33_166
*1138 FILLER_0_33_169
*1139 FILLER_0_33_177
*1140 FILLER_0_33_207
*1141 FILLER_0_33_219
*1142 FILLER_0_33_223
*1143 FILLER_0_33_225
*1144 FILLER_0_33_240
*1145 FILLER_0_33_267
*1146 FILLER_0_33_27
*1147 FILLER_0_33_279
*1148 FILLER_0_33_281
*1149 FILLER_0_33_3
*1150 FILLER_0_33_334
*1151 FILLER_0_33_35
*1152 FILLER_0_33_44
*1153 FILLER_0_33_57
*1154 FILLER_0_33_65
*1155 FILLER_0_34_124
*1156 FILLER_0_34_15
*1157 FILLER_0_34_171
*1158 FILLER_0_34_183
*1159 FILLER_0_34_193
*1160 FILLER_0_34_203
*1161 FILLER_0_34_215
*1162 FILLER_0_34_223
*1163 FILLER_0_34_27
*1164 FILLER_0_34_283
*1165 FILLER_0_34_29
*1166 FILLER_0_34_3
*1167 FILLER_0_34_304
*1168 FILLER_0_34_325
*1169 FILLER_0_34_41
*1170 FILLER_0_34_53
*1171 FILLER_0_34_65
*1172 FILLER_0_34_76
*1173 FILLER_0_34_94
*1174 FILLER_0_35_111
*1175 FILLER_0_35_118
*1176 FILLER_0_35_122
*1177 FILLER_0_35_15
*1178 FILLER_0_35_167
*1179 FILLER_0_35_180
*1180 FILLER_0_35_210
*1181 FILLER_0_35_222
*1182 FILLER_0_35_253
*1183 FILLER_0_35_27
*1184 FILLER_0_35_279
*1185 FILLER_0_35_281
*1186 FILLER_0_35_285
*1187 FILLER_0_35_3
*1188 FILLER_0_35_333
*1189 FILLER_0_35_39
*1190 FILLER_0_35_51
*1191 FILLER_0_35_55
*1192 FILLER_0_35_57
*1193 FILLER_0_35_69
*1194 FILLER_0_35_81
*1195 FILLER_0_35_93
*1196 FILLER_0_36_133
*1197 FILLER_0_36_141
*1198 FILLER_0_36_15
*1199 FILLER_0_36_187
*1200 FILLER_0_36_195
*1201 FILLER_0_36_248
*1202 FILLER_0_36_27
*1203 FILLER_0_36_273
*1204 FILLER_0_36_29
*1205 FILLER_0_36_3
*1206 FILLER_0_36_307
*1207 FILLER_0_36_41
*1208 FILLER_0_36_53
*1209 FILLER_0_36_65
*1210 FILLER_0_36_77
*1211 FILLER_0_36_83
*1212 FILLER_0_36_85
*1213 FILLER_0_36_97
*1214 FILLER_0_37_113
*1215 FILLER_0_37_121
*1216 FILLER_0_37_15
*1217 FILLER_0_37_169
*1218 FILLER_0_37_213
*1219 FILLER_0_37_217
*1220 FILLER_0_37_245
*1221 FILLER_0_37_249
*1222 FILLER_0_37_27
*1223 FILLER_0_37_278
*1224 FILLER_0_37_3
*1225 FILLER_0_37_39
*1226 FILLER_0_37_51
*1227 FILLER_0_37_55
*1228 FILLER_0_37_57
*1229 FILLER_0_37_69
*1230 FILLER_0_37_81
*1231 FILLER_0_37_89
*1232 FILLER_0_38_10
*1233 FILLER_0_38_106
*1234 FILLER_0_38_135
*1235 FILLER_0_38_139
*1236 FILLER_0_38_14
*1237 FILLER_0_38_141
*1238 FILLER_0_38_145
*1239 FILLER_0_38_18
*1240 FILLER_0_38_182
*1241 FILLER_0_38_191
*1242 FILLER_0_38_195
*1243 FILLER_0_38_197
*1244 FILLER_0_38_203
*1245 FILLER_0_38_22
*1246 FILLER_0_38_241
*1247 FILLER_0_38_268
*1248 FILLER_0_38_281
*1249 FILLER_0_38_32
*1250 FILLER_0_38_38
*1251 FILLER_0_38_42
*1252 FILLER_0_38_46
*1253 FILLER_0_38_50
*1254 FILLER_0_38_54
*1255 FILLER_0_38_57
*1256 FILLER_0_38_6
*1257 FILLER_0_38_62
*1258 FILLER_0_38_66
*1259 FILLER_0_38_70
*1260 FILLER_0_38_74
*1261 FILLER_0_38_78
*1262 FILLER_0_38_88
*1263 FILLER_0_38_94
*1264 FILLER_0_3_105
*1265 FILLER_0_3_111
*1266 FILLER_0_3_113
*1267 FILLER_0_3_125
*1268 FILLER_0_3_137
*1269 FILLER_0_3_149
*1270 FILLER_0_3_15
*1271 FILLER_0_3_161
*1272 FILLER_0_3_167
*1273 FILLER_0_3_169
*1274 FILLER_0_3_181
*1275 FILLER_0_3_193
*1276 FILLER_0_3_205
*1277 FILLER_0_3_217
*1278 FILLER_0_3_223
*1279 FILLER_0_3_225
*1280 FILLER_0_3_237
*1281 FILLER_0_3_249
*1282 FILLER_0_3_261
*1283 FILLER_0_3_27
*1284 FILLER_0_3_273
*1285 FILLER_0_3_279
*1286 FILLER_0_3_281
*1287 FILLER_0_3_293
*1288 FILLER_0_3_3
*1289 FILLER_0_3_305
*1290 FILLER_0_3_317
*1291 FILLER_0_3_329
*1292 FILLER_0_3_39
*1293 FILLER_0_3_51
*1294 FILLER_0_3_55
*1295 FILLER_0_3_57
*1296 FILLER_0_3_69
*1297 FILLER_0_3_81
*1298 FILLER_0_3_93
*1299 FILLER_0_4_109
*1300 FILLER_0_4_121
*1301 FILLER_0_4_133
*1302 FILLER_0_4_139
*1303 FILLER_0_4_141
*1304 FILLER_0_4_15
*1305 FILLER_0_4_153
*1306 FILLER_0_4_165
*1307 FILLER_0_4_177
*1308 FILLER_0_4_189
*1309 FILLER_0_4_195
*1310 FILLER_0_4_197
*1311 FILLER_0_4_209
*1312 FILLER_0_4_221
*1313 FILLER_0_4_233
*1314 FILLER_0_4_245
*1315 FILLER_0_4_251
*1316 FILLER_0_4_253
*1317 FILLER_0_4_265
*1318 FILLER_0_4_27
*1319 FILLER_0_4_277
*1320 FILLER_0_4_289
*1321 FILLER_0_4_29
*1322 FILLER_0_4_3
*1323 FILLER_0_4_301
*1324 FILLER_0_4_307
*1325 FILLER_0_4_309
*1326 FILLER_0_4_321
*1327 FILLER_0_4_333
*1328 FILLER_0_4_41
*1329 FILLER_0_4_53
*1330 FILLER_0_4_65
*1331 FILLER_0_4_77
*1332 FILLER_0_4_83
*1333 FILLER_0_4_85
*1334 FILLER_0_4_97
*1335 FILLER_0_5_105
*1336 FILLER_0_5_111
*1337 FILLER_0_5_113
*1338 FILLER_0_5_125
*1339 FILLER_0_5_137
*1340 FILLER_0_5_149
*1341 FILLER_0_5_15
*1342 FILLER_0_5_161
*1343 FILLER_0_5_167
*1344 FILLER_0_5_169
*1345 FILLER_0_5_181
*1346 FILLER_0_5_193
*1347 FILLER_0_5_205
*1348 FILLER_0_5_217
*1349 FILLER_0_5_223
*1350 FILLER_0_5_225
*1351 FILLER_0_5_237
*1352 FILLER_0_5_249
*1353 FILLER_0_5_261
*1354 FILLER_0_5_27
*1355 FILLER_0_5_273
*1356 FILLER_0_5_279
*1357 FILLER_0_5_281
*1358 FILLER_0_5_293
*1359 FILLER_0_5_3
*1360 FILLER_0_5_305
*1361 FILLER_0_5_317
*1362 FILLER_0_5_329
*1363 FILLER_0_5_39
*1364 FILLER_0_5_51
*1365 FILLER_0_5_55
*1366 FILLER_0_5_57
*1367 FILLER_0_5_69
*1368 FILLER_0_5_81
*1369 FILLER_0_5_93
*1370 FILLER_0_6_109
*1371 FILLER_0_6_121
*1372 FILLER_0_6_133
*1373 FILLER_0_6_139
*1374 FILLER_0_6_141
*1375 FILLER_0_6_15
*1376 FILLER_0_6_153
*1377 FILLER_0_6_165
*1378 FILLER_0_6_177
*1379 FILLER_0_6_189
*1380 FILLER_0_6_195
*1381 FILLER_0_6_197
*1382 FILLER_0_6_209
*1383 FILLER_0_6_221
*1384 FILLER_0_6_233
*1385 FILLER_0_6_245
*1386 FILLER_0_6_251
*1387 FILLER_0_6_253
*1388 FILLER_0_6_265
*1389 FILLER_0_6_27
*1390 FILLER_0_6_277
*1391 FILLER_0_6_289
*1392 FILLER_0_6_29
*1393 FILLER_0_6_3
*1394 FILLER_0_6_301
*1395 FILLER_0_6_307
*1396 FILLER_0_6_309
*1397 FILLER_0_6_321
*1398 FILLER_0_6_333
*1399 FILLER_0_6_41
*1400 FILLER_0_6_53
*1401 FILLER_0_6_65
*1402 FILLER_0_6_77
*1403 FILLER_0_6_83
*1404 FILLER_0_6_85
*1405 FILLER_0_6_97
*1406 FILLER_0_7_105
*1407 FILLER_0_7_111
*1408 FILLER_0_7_113
*1409 FILLER_0_7_125
*1410 FILLER_0_7_137
*1411 FILLER_0_7_149
*1412 FILLER_0_7_15
*1413 FILLER_0_7_161
*1414 FILLER_0_7_167
*1415 FILLER_0_7_169
*1416 FILLER_0_7_181
*1417 FILLER_0_7_193
*1418 FILLER_0_7_205
*1419 FILLER_0_7_217
*1420 FILLER_0_7_223
*1421 FILLER_0_7_225
*1422 FILLER_0_7_237
*1423 FILLER_0_7_249
*1424 FILLER_0_7_261
*1425 FILLER_0_7_27
*1426 FILLER_0_7_273
*1427 FILLER_0_7_279
*1428 FILLER_0_7_281
*1429 FILLER_0_7_293
*1430 FILLER_0_7_3
*1431 FILLER_0_7_305
*1432 FILLER_0_7_317
*1433 FILLER_0_7_329
*1434 FILLER_0_7_39
*1435 FILLER_0_7_51
*1436 FILLER_0_7_55
*1437 FILLER_0_7_57
*1438 FILLER_0_7_69
*1439 FILLER_0_7_81
*1440 FILLER_0_7_93
*1441 FILLER_0_8_109
*1442 FILLER_0_8_121
*1443 FILLER_0_8_133
*1444 FILLER_0_8_139
*1445 FILLER_0_8_141
*1446 FILLER_0_8_15
*1447 FILLER_0_8_153
*1448 FILLER_0_8_165
*1449 FILLER_0_8_177
*1450 FILLER_0_8_189
*1451 FILLER_0_8_195
*1452 FILLER_0_8_197
*1453 FILLER_0_8_209
*1454 FILLER_0_8_221
*1455 FILLER_0_8_233
*1456 FILLER_0_8_245
*1457 FILLER_0_8_251
*1458 FILLER_0_8_253
*1459 FILLER_0_8_265
*1460 FILLER_0_8_27
*1461 FILLER_0_8_277
*1462 FILLER_0_8_289
*1463 FILLER_0_8_29
*1464 FILLER_0_8_3
*1465 FILLER_0_8_301
*1466 FILLER_0_8_307
*1467 FILLER_0_8_309
*1468 FILLER_0_8_321
*1469 FILLER_0_8_333
*1470 FILLER_0_8_41
*1471 FILLER_0_8_53
*1472 FILLER_0_8_65
*1473 FILLER_0_8_77
*1474 FILLER_0_8_83
*1475 FILLER_0_8_85
*1476 FILLER_0_8_97
*1477 FILLER_0_9_105
*1478 FILLER_0_9_111
*1479 FILLER_0_9_113
*1480 FILLER_0_9_125
*1481 FILLER_0_9_137
*1482 FILLER_0_9_149
*1483 FILLER_0_9_15
*1484 FILLER_0_9_161
*1485 FILLER_0_9_167
*1486 FILLER_0_9_169
*1487 FILLER_0_9_181
*1488 FILLER_0_9_193
*1489 FILLER_0_9_205
*1490 FILLER_0_9_217
*1491 FILLER_0_9_223
*1492 FILLER_0_9_225
*1493 FILLER_0_9_237
*1494 FILLER_0_9_249
*1495 FILLER_0_9_261
*1496 FILLER_0_9_27
*1497 FILLER_0_9_273
*1498 FILLER_0_9_279
*1499 FILLER_0_9_281
*1500 FILLER_0_9_293
*1501 FILLER_0_9_3
*1502 FILLER_0_9_305
*1503 FILLER_0_9_317
*1504 FILLER_0_9_329
*1505 FILLER_0_9_39
*1506 FILLER_0_9_51
*1507 FILLER_0_9_55
*1508 FILLER_0_9_57
*1509 FILLER_0_9_69
*1510 FILLER_0_9_81
*1511 FILLER_0_9_93
*1512 PHY_EDGE_ROW_0_Left_39
*1513 PHY_EDGE_ROW_0_Right_0
*1514 PHY_EDGE_ROW_10_Left_49
*1515 PHY_EDGE_ROW_10_Right_10
*1516 PHY_EDGE_ROW_11_Left_50
*1517 PHY_EDGE_ROW_11_Right_11
*1518 PHY_EDGE_ROW_12_Left_51
*1519 PHY_EDGE_ROW_12_Right_12
*1520 PHY_EDGE_ROW_13_Left_52
*1521 PHY_EDGE_ROW_13_Right_13
*1522 PHY_EDGE_ROW_14_Left_53
*1523 PHY_EDGE_ROW_14_Right_14
*1524 PHY_EDGE_ROW_15_Left_54
*1525 PHY_EDGE_ROW_15_Right_15
*1526 PHY_EDGE_ROW_16_Left_55
*1527 PHY_EDGE_ROW_16_Right_16
*1528 PHY_EDGE_ROW_17_Left_56
*1529 PHY_EDGE_ROW_17_Right_17
*1530 PHY_EDGE_ROW_18_Left_57