*SPEF "ieee 1481-1999"
*DESIGN "tt_um_timer_counter_UGM"
*DATE "18:33:17 Friday April 19, 2024"
*VENDOR "The OpenROAD Project"
*PROGRAM "OpenROAD"
*VERSION "0889970d1790a2617e69f253221b8bd7626e51dc"
*DESIGN_FLOW "NAME_SCOPE LOCAL" "PIN_CAP NONE"
*DIVIDER /
*DELIMITER :
*BUS_DELIMITER []
*T_UNIT 1 NS
*C_UNIT 1 PF
*R_UNIT 1 OHM
*L_UNIT 1 HENRY

*NAME_MAP
*3 clk
*4 ena
*5 rst_n
*6 ui_in[0]
*7 ui_in[1]
*8 ui_in[2]
*9 ui_in[3]
*10 ui_in[4]
*11 ui_in[5]
*12 ui_in[6]
*13 ui_in[7]
*14 uio_in[0]
*15 uio_in[1]
*16 uio_in[2]
*17 uio_in[3]
*18 uio_in[4]
*19 uio_in[5]
*20 uio_in[6]
*21 uio_in[7]
*22 net20
*23 net21
*24 net22
*25 net23
*26 net12
*27 net13
*28 net14
*29 net15
*30 uio_out[0]
*31 uio_out[1]
*32 uio_out[2]
*33 uio_out[3]
*34 net16
*35 net17
*36 net18
*37 net19
*38 uo_out[0]
*39 uo_out[1]
*40 uo_out[2]
*41 uo_out[3]
*42 uo_out[4]
*43 uo_out[5]
*44 uo_out[6]
*45 uo_out[7]
*46 _000_
*47 _001_
*48 _002_
*49 _003_
*50 _004_
*51 _005_
*52 _006_
*53 _007_
*54 _008_
*55 _009_
*56 _010_
*57 _011_
*58 _012_
*59 _013_
*60 _014_
*61 _015_
*62 _016_
*63 _017_
*64 _018_
*65 _019_
*66 _020_
*67 _021_
*68 _022_
*69 _023_
*70 _024_
*71 _025_
*72 _026_
*73 _027_
*74 _028_
*75 _029_
*76 _030_
*77 _031_
*78 _032_
*79 _033_
*80 _034_
*81 _035_
*82 _036_
*83 _037_
*84 _038_
*85 _039_
*86 _040_
*87 _041_
*88 _042_
*89 _043_
*90 _044_
*91 _045_
*92 _046_
*93 _047_
*94 _048_
*95 _049_
*96 _050_
*97 _051_
*98 _052_
*99 _053_
*100 _054_
*101 _055_
*102 _056_
*103 _057_
*104 _058_
*105 _059_
*106 _060_
*107 _061_
*108 _062_
*109 _063_
*110 _064_
*111 _065_
*112 _066_
*113 _067_
*114 _068_
*115 _069_
*116 _070_
*117 _071_
*118 _072_
*119 _073_
*120 _074_
*121 _075_
*122 _076_
*123 _077_
*124 _078_
*125 _079_
*126 _080_
*127 _081_
*128 _082_
*129 _083_
*130 _084_
*131 _085_
*132 _086_
*133 _087_
*134 _088_
*135 _089_
*136 _090_
*137 _091_
*138 _092_
*139 _093_
*140 _094_
*141 _095_
*142 _096_
*143 _097_
*144 _098_
*145 _099_
*146 _100_
*147 _101_
*148 _102_
*149 _103_
*150 _104_
*151 _105_
*152 _106_
*153 _107_
*154 _108_
*155 _109_
*156 _110_
*157 _111_
*158 _112_
*159 _113_
*160 _114_
*161 _115_
*162 _116_
*163 _117_
*164 _118_
*165 _119_
*166 _120_
*167 _121_
*168 _122_
*169 _123_
*170 _124_
*171 _125_
*172 _126_
*173 _127_
*174 _128_
*175 _129_
*176 _130_
*177 _131_
*178 _132_
*179 _133_
*180 _134_
*181 _135_
*182 _136_
*183 _137_
*184 _138_
*185 _139_
*186 _140_
*187 _141_
*188 _142_
*189 _143_
*190 _144_
*191 _145_
*192 _146_
*193 _147_
*194 _148_
*195 _149_
*196 _150_
*197 _151_
*198 _152_
*199 _153_
*200 _154_
*201 _155_
*202 _156_
*203 _157_
*204 _158_
*205 _159_
*206 _160_
*207 _161_
*208 clknet_0_clk
*209 clknet_2_0__leaf_clk
*210 clknet_2_1__leaf_clk
*211 clknet_2_2__leaf_clk
*212 clknet_2_3__leaf_clk
*213 net1
*214 net10
*215 net11
*216 net2
*217 net24
*218 net25
*219 net26
*220 net27
*221 net28
*222 net29
*223 net3
*224 net30
*225 net31
*226 net32
*227 net33
*228 net34
*229 net35
*230 net36
*231 net37
*232 net38
*233 net39
*234 net4
*235 net40
*236 net41
*237 net42
*238 net43
*239 net44
*240 net45
*241 net46
*242 net47
*243 net48
*244 net49
*245 net5
*246 net50
*247 net51
*248 net52
*249 net53
*250 net54
*251 net55
*252 net6
*253 net7
*254 net8
*255 net9
*256 t0\.c0\.clk
*257 t0\.c0\.q\[0\]
*258 t0\.c0\.q\[1\]
*259 t0\.c0\.q\[2\]
*260 t0\.c0\.q\[3\]
*261 t0\.c1\.q\[0\]
*262 t0\.c1\.q\[1\]
*263 t0\.c1\.q\[2\]
*264 t0\.c1\.q\[3\]
*265 t0\.c2\.q\[0\]
*266 t0\.c2\.q\[1\]
*267 t0\.c2\.q\[2\]
*268 t0\.c2\.q\[3\]
*269 t0\.c3\.q\[0\]
*270 t0\.c3\.q\[1\]
*271 t0\.c3\.q\[2\]
*272 t0\.c3\.q\[3\]
*273 t0\.clk_1Hz
*274 t0\.clk_div_1Hz\[0\]
*275 t0\.clk_div_1Hz\[1\]
*276 t0\.clk_div_1Hz\[2\]
*277 t0\.clk_div_1Hz\[3\]
*278 t0\.clk_div_1Hz\[4\]
*279 t0\.clk_div_1Hz\[5\]
*280 t0\.clk_div_1Hz\[6\]
*281 t0\.clk_div_1Hz\[7\]
*282 t0\.clk_div_1Hz\[8\]
*283 t0\.clk_div_1Hz\[9\]
*284 t0\.d0\.q
*285 t0\.d0\.sreg\[0\]
*286 t0\.d0\.sreg\[1\]
*287 t0\.d0\.sreg\[2\]
*288 t0\.d0\.sreg\[3\]
*289 t0\.d0\.sreg\[4\]
*290 t0\.d0\.sreg\[5\]
*291 t0\.d0\.sreg\[6\]
*292 t0\.d0\.sreg\[7\]
*293 t0\.d1\.q
*294 t0\.d1\.sreg\[0\]
*295 t0\.d1\.sreg\[1\]
*296 t0\.d1\.sreg\[2\]
*297 t0\.d1\.sreg\[3\]
*298 t0\.d1\.sreg\[4\]
*299 t0\.d1\.sreg\[5\]
*300 t0\.d1\.sreg\[6\]
*301 t0\.d1\.sreg\[7\]
*302 t0\.d2\.q
*303 t0\.d2\.sreg\[0\]
*304 t0\.d2\.sreg\[1\]
*305 t0\.d2\.sreg\[2\]
*306 t0\.d2\.sreg\[3\]
*307 t0\.d2\.sreg\[4\]
*308 t0\.d2\.sreg\[5\]
*309 t0\.d2\.sreg\[6\]
*310 t0\.d2\.sreg\[7\]
*311 t0\.enclock_1Hz
*312 t0\.m0\.sel\[0\]
*313 t0\.m0\.sel\[1\]
*314 t0\.mode_lock
*315 t0\.mode_reg
*316 FILLER_0_0_109
*317 FILLER_0_0_113
*318 FILLER_0_0_125
*319 FILLER_0_0_137
*320 FILLER_0_0_141
*321 FILLER_0_0_15
*322 FILLER_0_0_153
*323 FILLER_0_0_165
*324 FILLER_0_0_169
*325 FILLER_0_0_181
*326 FILLER_0_0_193
*327 FILLER_0_0_197
*328 FILLER_0_0_209
*329 FILLER_0_0_221
*330 FILLER_0_0_225
*331 FILLER_0_0_237
*332 FILLER_0_0_249
*333 FILLER_0_0_253
*334 FILLER_0_0_265
*335 FILLER_0_0_27
*336 FILLER_0_0_277
*337 FILLER_0_0_281
*338 FILLER_0_0_29
*339 FILLER_0_0_293
*340 FILLER_0_0_3
*341 FILLER_0_0_305
*342 FILLER_0_0_309
*343 FILLER_0_0_321
*344 FILLER_0_0_333
*345 FILLER_0_0_41
*346 FILLER_0_0_53
*347 FILLER_0_0_57
*348 FILLER_0_0_69
*349 FILLER_0_0_81
*350 FILLER_0_0_85
*351 FILLER_0_0_97
*352 FILLER_0_10_109
*353 FILLER_0_10_121
*354 FILLER_0_10_133
*355 FILLER_0_10_139
*356 FILLER_0_10_141
*357 FILLER_0_10_15
*358 FILLER_0_10_153
*359 FILLER_0_10_165
*360 FILLER_0_10_177
*361 FILLER_0_10_189
*362 FILLER_0_10_195
*363 FILLER_0_10_197
*364 FILLER_0_10_209
*365 FILLER_0_10_221
*366 FILLER_0_10_233
*367 FILLER_0_10_245
*368 FILLER_0_10_251
*369 FILLER_0_10_253
*370 FILLER_0_10_265
*371 FILLER_0_10_27
*372 FILLER_0_10_277
*373 FILLER_0_10_289
*374 FILLER_0_10_29
*375 FILLER_0_10_3
*376 FILLER_0_10_301
*377 FILLER_0_10_307
*378 FILLER_0_10_309
*379 FILLER_0_10_321
*380 FILLER_0_10_333
*381 FILLER_0_10_41
*382 FILLER_0_10_53
*383 FILLER_0_10_65
*384 FILLER_0_10_77
*385 FILLER_0_10_83
*386 FILLER_0_10_85
*387 FILLER_0_10_97
*388 FILLER_0_11_105
*389 FILLER_0_11_111
*390 FILLER_0_11_113
*391 FILLER_0_11_125
*392 FILLER_0_11_137
*393 FILLER_0_11_149
*394 FILLER_0_11_15
*395 FILLER_0_11_161
*396 FILLER_0_11_167
*397 FILLER_0_11_169
*398 FILLER_0_11_181
*399 FILLER_0_11_193
*400 FILLER_0_11_205
*401 FILLER_0_11_217
*402 FILLER_0_11_223
*403 FILLER_0_11_225
*404 FILLER_0_11_237
*405 FILLER_0_11_249
*406 FILLER_0_11_261
*407 FILLER_0_11_27
*408 FILLER_0_11_273
*409 FILLER_0_11_279
*410 FILLER_0_11_281
*411 FILLER_0_11_293
*412 FILLER_0_11_3
*413 FILLER_0_11_305
*414 FILLER_0_11_317
*415 FILLER_0_11_329
*416 FILLER_0_11_39
*417 FILLER_0_11_51
*418 FILLER_0_11_55
*419 FILLER_0_11_57
*420 FILLER_0_11_69
*421 FILLER_0_11_81
*422 FILLER_0_11_93
*423 FILLER_0_12_109
*424 FILLER_0_12_121
*425 FILLER_0_12_133
*426 FILLER_0_12_139
*427 FILLER_0_12_141
*428 FILLER_0_12_15
*429 FILLER_0_12_153
*430 FILLER_0_12_165
*431 FILLER_0_12_177
*432 FILLER_0_12_189
*433 FILLER_0_12_195
*434 FILLER_0_12_197
*435 FILLER_0_12_209
*436 FILLER_0_12_221
*437 FILLER_0_12_233
*438 FILLER_0_12_245
*439 FILLER_0_12_251
*440 FILLER_0_12_253
*441 FILLER_0_12_265
*442 FILLER_0_12_27
*443 FILLER_0_12_277
*444 FILLER_0_12_289
*445 FILLER_0_12_29
*446 FILLER_0_12_3
*447 FILLER_0_12_301
*448 FILLER_0_12_307
*449 FILLER_0_12_309
*450 FILLER_0_12_321
*451 FILLER_0_12_333
*452 FILLER_0_12_41
*453 FILLER_0_12_53
*454 FILLER_0_12_65
*455 FILLER_0_12_77
*456 FILLER_0_12_83
*457 FILLER_0_12_85
*458 FILLER_0_12_97
*459 FILLER_0_13_105
*460 FILLER_0_13_111
*461 FILLER_0_13_113
*462 FILLER_0_13_125
*463 FILLER_0_13_137
*464 FILLER_0_13_149
*465 FILLER_0_13_15
*466 FILLER_0_13_161
*467 FILLER_0_13_167
*468 FILLER_0_13_169
*469 FILLER_0_13_181
*470 FILLER_0_13_193
*471 FILLER_0_13_205
*472 FILLER_0_13_217
*473 FILLER_0_13_223
*474 FILLER_0_13_225
*475 FILLER_0_13_237
*476 FILLER_0_13_249
*477 FILLER_0_13_261
*478 FILLER_0_13_27
*479 FILLER_0_13_273
*480 FILLER_0_13_279
*481 FILLER_0_13_281
*482 FILLER_0_13_293
*483 FILLER_0_13_3
*484 FILLER_0_13_305
*485 FILLER_0_13_317
*486 FILLER_0_13_329
*487 FILLER_0_13_39
*488 FILLER_0_13_51
*489 FILLER_0_13_55
*490 FILLER_0_13_57
*491 FILLER_0_13_69
*492 FILLER_0_13_81
*493 FILLER_0_13_93
*494 FILLER_0_14_109
*495 FILLER_0_14_121
*496 FILLER_0_14_133
*497 FILLER_0_14_139
*498 FILLER_0_14_141
*499 FILLER_0_14_15
*500 FILLER_0_14_153
*501 FILLER_0_14_165
*502 FILLER_0_14_177
*503 FILLER_0_14_189
*504 FILLER_0_14_195
*505 FILLER_0_14_197
*506 FILLER_0_14_209
*507 FILLER_0_14_221
*508 FILLER_0_14_233
*509 FILLER_0_14_245
*510 FILLER_0_14_251
*511 FILLER_0_14_253
*512 FILLER_0_14_265
*513 FILLER_0_14_27
*514 FILLER_0_14_277
*515 FILLER_0_14_289
*516 FILLER_0_14_29
*517 FILLER_0_14_3
*518 FILLER_0_14_301
*519 FILLER_0_14_307
*520 FILLER_0_14_309
*521 FILLER_0_14_321
*522 FILLER_0_14_333
*523 FILLER_0_14_41
*524 FILLER_0_14_53
*525 FILLER_0_14_65
*526 FILLER_0_14_77
*527 FILLER_0_14_83
*528 FILLER_0_14_85
*529 FILLER_0_14_97
*530 FILLER_0_15_105
*531 FILLER_0_15_111
*532 FILLER_0_15_113
*533 FILLER_0_15_125
*534 FILLER_0_15_137
*535 FILLER_0_15_149
*536 FILLER_0_15_15
*537 FILLER_0_15_161
*538 FILLER_0_15_167
*539 FILLER_0_15_169
*540 FILLER_0_15_181
*541 FILLER_0_15_193
*542 FILLER_0_15_205
*543 FILLER_0_15_217
*544 FILLER_0_15_223
*545 FILLER_0_15_225
*546 FILLER_0_15_237
*547 FILLER_0_15_249
*548 FILLER_0_15_261
*549 FILLER_0_15_27
*550 FILLER_0_15_273
*551 FILLER_0_15_279
*552 FILLER_0_15_281
*553 FILLER_0_15_293
*554 FILLER_0_15_3
*555 FILLER_0_15_305
*556 FILLER_0_15_317
*557 FILLER_0_15_329
*558 FILLER_0_15_39
*559 FILLER_0_15_51
*560 FILLER_0_15_55
*561 FILLER_0_15_57
*562 FILLER_0_15_69
*563 FILLER_0_15_81
*564 FILLER_0_15_93
*565 FILLER_0_16_109
*566 FILLER_0_16_121
*567 FILLER_0_16_133
*568 FILLER_0_16_139
*569 FILLER_0_16_141
*570 FILLER_0_16_15
*571 FILLER_0_16_153
*572 FILLER_0_16_165
*573 FILLER_0_16_177
*574 FILLER_0_16_189
*575 FILLER_0_16_195
*576 FILLER_0_16_197
*577 FILLER_0_16_209
*578 FILLER_0_16_221
*579 FILLER_0_16_233
*580 FILLER_0_16_245
*581 FILLER_0_16_251
*582 FILLER_0_16_253
*583 FILLER_0_16_265
*584 FILLER_0_16_27
*585 FILLER_0_16_277
*586 FILLER_0_16_289
*587 FILLER_0_16_29
*588 FILLER_0_16_3
*589 FILLER_0_16_301
*590 FILLER_0_16_307
*591 FILLER_0_16_309
*592 FILLER_0_16_321
*593 FILLER_0_16_333
*594 FILLER_0_16_41
*595 FILLER_0_16_53
*596 FILLER_0_16_65
*597 FILLER_0_16_77
*598 FILLER_0_16_83
*599 FILLER_0_16_85
*600 FILLER_0_16_97
*601 FILLER_0_17_105
*602 FILLER_0_17_111
*603 FILLER_0_17_113
*604 FILLER_0_17_125
*605 FILLER_0_17_137
*606 FILLER_0_17_149
*607 FILLER_0_17_15
*608 FILLER_0_17_161
*609 FILLER_0_17_167
*610 FILLER_0_17_169
*611 FILLER_0_17_181
*612 FILLER_0_17_193
*613 FILLER_0_17_205
*614 FILLER_0_17_217
*615 FILLER_0_17_223
*616 FILLER_0_17_225
*617 FILLER_0_17_237
*618 FILLER_0_17_249
*619 FILLER_0_17_261
*620 FILLER_0_17_27
*621 FILLER_0_17_273
*622 FILLER_0_17_279
*623 FILLER_0_17_281
*624 FILLER_0_17_293
*625 FILLER_0_17_3
*626 FILLER_0_17_305
*627 FILLER_0_17_317
*628 FILLER_0_17_329
*629 FILLER_0_17_39
*630 FILLER_0_17_51
*631 FILLER_0_17_55
*632 FILLER_0_17_57
*633 FILLER_0_17_69
*634 FILLER_0_17_81
*635 FILLER_0_17_93
*636 FILLER_0_18_109
*637 FILLER_0_18_121
*638 FILLER_0_18_133
*639 FILLER_0_18_139
*640 FILLER_0_18_141
*641 FILLER_0_18_15
*642 FILLER_0_18_153
*643 FILLER_0_18_165
*644 FILLER_0_18_177
*645 FILLER_0_18_189
*646 FILLER_0_18_195
*647 FILLER_0_18_197
*648 FILLER_0_18_209
*649 FILLER_0_18_221
*650 FILLER_0_18_233
*651 FILLER_0_18_245
*652 FILLER_0_18_251
*653 FILLER_0_18_253
*654 FILLER_0_18_265
*655 FILLER_0_18_27
*656 FILLER_0_18_277
*657 FILLER_0_18_289
*658 FILLER_0_18_29
*659 FILLER_0_18_3
*660 FILLER_0_18_301
*661 FILLER_0_18_307
*662 FILLER_0_18_309
*663 FILLER_0_18_321
*664 FILLER_0_18_333
*665 FILLER_0_18_41
*666 FILLER_0_18_53
*667 FILLER_0_18_65
*668 FILLER_0_18_77
*669 FILLER_0_18_83
*670 FILLER_0_18_85
*671 FILLER_0_18_97
*672 FILLER_0_19_105
*673 FILLER_0_19_111
*674 FILLER_0_19_113
*675 FILLER_0_19_125
*676 FILLER_0_19_137
*677 FILLER_0_19_149
*678 FILLER_0_19_15
*679 FILLER_0_19_161
*680 FILLER_0_19_167
*681 FILLER_0_19_169
*682 FILLER_0_19_181
*683 FILLER_0_19_193
*684 FILLER_0_19_205
*685 FILLER_0_19_217
*686 FILLER_0_19_223
*687 FILLER_0_19_225
*688 FILLER_0_19_237
*689 FILLER_0_19_249
*690 FILLER_0_19_261
*691 FILLER_0_19_27
*692 FILLER_0_19_273
*693 FILLER_0_19_279
*694 FILLER_0_19_281
*695 FILLER_0_19_293
*696 FILLER_0_19_3
*697 FILLER_0_19_305
*698 FILLER_0_19_317
*699 FILLER_0_19_329
*700 FILLER_0_19_39
*701 FILLER_0_19_51
*702 FILLER_0_19_55
*703 FILLER_0_19_57
*704 FILLER_0_19_69
*705 FILLER_0_19_81
*706 FILLER_0_19_93
*707 FILLER_0_1_105
*708 FILLER_0_1_111
*709 FILLER_0_1_113
*710 FILLER_0_1_125
*711 FILLER_0_1_137
*712 FILLER_0_1_149
*713 FILLER_0_1_15
*714 FILLER_0_1_161
*715 FILLER_0_1_167
*716 FILLER_0_1_169
*717 FILLER_0_1_181
*718 FILLER_0_1_193
*719 FILLER_0_1_205
*720 FILLER_0_1_217
*721 FILLER_0_1_223
*722 FILLER_0_1_225
*723 FILLER_0_1_237
*724 FILLER_0_1_249
*725 FILLER_0_1_261
*726 FILLER_0_1_27
*727 FILLER_0_1_273
*728 FILLER_0_1_279
*729 FILLER_0_1_281
*730 FILLER_0_1_293
*731 FILLER_0_1_3
*732 FILLER_0_1_305
*733 FILLER_0_1_317
*734 FILLER_0_1_329
*735 FILLER_0_1_39
*736 FILLER_0_1_51
*737 FILLER_0_1_55
*738 FILLER_0_1_57
*739 FILLER_0_1_69
*740 FILLER_0_1_81
*741 FILLER_0_1_93
*742 FILLER_0_20_109
*743 FILLER_0_20_121
*744 FILLER_0_20_133
*745 FILLER_0_20_139
*746 FILLER_0_20_141
*747 FILLER_0_20_15
*748 FILLER_0_20_153
*749 FILLER_0_20_165
*750 FILLER_0_20_177
*751 FILLER_0_20_189
*752 FILLER_0_20_195
*753 FILLER_0_20_197
*754 FILLER_0_20_209
*755 FILLER_0_20_221
*756 FILLER_0_20_233
*757 FILLER_0_20_245
*758 FILLER_0_20_251
*759 FILLER_0_20_253
*760 FILLER_0_20_265
*761 FILLER_0_20_27
*762 FILLER_0_20_277
*763 FILLER_0_20_289
*764 FILLER_0_20_29
*765 FILLER_0_20_3
*766 FILLER_0_20_301
*767 FILLER_0_20_307
*768 FILLER_0_20_309
*769 FILLER_0_20_321
*770 FILLER_0_20_333
*771 FILLER_0_20_41
*772 FILLER_0_20_53
*773 FILLER_0_20_65
*774 FILLER_0_20_77
*775 FILLER_0_20_83
*776 FILLER_0_20_85
*777 FILLER_0_20_97
*778 FILLER_0_21_105
*779 FILLER_0_21_111
*780 FILLER_0_21_113
*781 FILLER_0_21_125
*782 FILLER_0_21_137
*783 FILLER_0_21_149
*784 FILLER_0_21_15
*785 FILLER_0_21_161
*786 FILLER_0_21_167
*787 FILLER_0_21_169
*788 FILLER_0_21_181
*789 FILLER_0_21_193
*790 FILLER_0_21_205
*791 FILLER_0_21_217
*792 FILLER_0_21_223
*793 FILLER_0_21_225
*794 FILLER_0_21_237
*795 FILLER_0_21_249
*796 FILLER_0_21_261
*797 FILLER_0_21_27
*798 FILLER_0_21_273
*799 FILLER_0_21_279
*800 FILLER_0_21_281
*801 FILLER_0_21_293
*802 FILLER_0_21_3
*803 FILLER_0_21_305
*804 FILLER_0_21_317
*805 FILLER_0_21_329
*806 FILLER_0_21_39
*807 FILLER_0_21_51
*808 FILLER_0_21_55
*809 FILLER_0_21_57
*810 FILLER_0_21_69
*811 FILLER_0_21_81
*812 FILLER_0_21_93
*813 FILLER_0_22_109
*814 FILLER_0_22_121
*815 FILLER_0_22_133
*816 FILLER_0_22_139
*817 FILLER_0_22_141
*818 FILLER_0_22_15
*819 FILLER_0_22_153
*820 FILLER_0_22_165
*821 FILLER_0_22_177
*822 FILLER_0_22_189
*823 FILLER_0_22_195
*824 FILLER_0_22_197
*825 FILLER_0_22_209
*826 FILLER_0_22_221
*827 FILLER_0_22_247
*828 FILLER_0_22_251
*829 FILLER_0_22_253
*830 FILLER_0_22_259
*831 FILLER_0_22_27
*832 FILLER_0_22_271
*833 FILLER_0_22_283
*834 FILLER_0_22_29
*835 FILLER_0_22_295
*836 FILLER_0_22_3
*837 FILLER_0_22_307
*838 FILLER_0_22_309
*839 FILLER_0_22_321
*840 FILLER_0_22_333
*841 FILLER_0_22_41
*842 FILLER_0_22_53
*843 FILLER_0_22_65
*844 FILLER_0_22_77
*845 FILLER_0_22_83
*846 FILLER_0_22_85
*847 FILLER_0_22_97
*848 FILLER_0_23_105
*849 FILLER_0_23_111
*850 FILLER_0_23_113
*851 FILLER_0_23_125
*852 FILLER_0_23_137
*853 FILLER_0_23_149
*854 FILLER_0_23_15
*855 FILLER_0_23_161
*856 FILLER_0_23_167
*857 FILLER_0_23_169
*858 FILLER_0_23_181
*859 FILLER_0_23_193
*860 FILLER_0_23_201
*861 FILLER_0_23_206
*862 FILLER_0_23_212
*863 FILLER_0_23_245
*864 FILLER_0_23_27
*865 FILLER_0_23_279
*866 FILLER_0_23_281
*867 FILLER_0_23_293
*868 FILLER_0_23_3
*869 FILLER_0_23_305
*870 FILLER_0_23_313
*871 FILLER_0_23_324
*872 FILLER_0_23_332
*873 FILLER_0_23_39
*874 FILLER_0_23_51
*875 FILLER_0_23_55
*876 FILLER_0_23_57
*877 FILLER_0_23_69
*878 FILLER_0_23_81
*879 FILLER_0_23_93
*880 FILLER_0_24_106
*881 FILLER_0_24_118
*882 FILLER_0_24_130
*883 FILLER_0_24_138
*884 FILLER_0_24_141
*885 FILLER_0_24_15
*886 FILLER_0_24_151
*887 FILLER_0_24_163
*888 FILLER_0_24_175
*889 FILLER_0_24_187
*890 FILLER_0_24_195
*891 FILLER_0_24_220
*892 FILLER_0_24_251
*893 FILLER_0_24_258
*894 FILLER_0_24_27
*895 FILLER_0_24_280
*896 FILLER_0_24_29
*897 FILLER_0_24_292
*898 FILLER_0_24_3
*899 FILLER_0_24_304
*900 FILLER_0_24_41
*901 FILLER_0_24_53
*902 FILLER_0_24_65
*903 FILLER_0_24_77
*904 FILLER_0_25_108
*905 FILLER_0_25_113
*906 FILLER_0_25_15
*907 FILLER_0_25_163
*908 FILLER_0_25_167
*909 FILLER_0_25_169
*910 FILLER_0_25_181
*911 FILLER_0_25_189
*912 FILLER_0_25_222
*913 FILLER_0_25_225
*914 FILLER_0_25_251
*915 FILLER_0_25_27
*916 FILLER_0_25_273
*917 FILLER_0_25_279
*918 FILLER_0_25_281
*919 FILLER_0_25_293
*920 FILLER_0_25_3
*921 FILLER_0_25_332
*922 FILLER_0_25_39
*923 FILLER_0_25_51
*924 FILLER_0_25_55
*925 FILLER_0_25_57
*926 FILLER_0_25_69
*927 FILLER_0_25_96
*928 FILLER_0_26_104
*929 FILLER_0_26_136
*930 FILLER_0_26_141
*931 FILLER_0_26_15
*932 FILLER_0_26_172
*933 FILLER_0_26_184
*934 FILLER_0_26_197
*935 FILLER_0_26_202
*936 FILLER_0_26_213
*937 FILLER_0_26_220
*938 FILLER_0_26_232
*939 FILLER_0_26_250
*940 FILLER_0_26_253
*941 FILLER_0_26_265
*942 FILLER_0_26_27
*943 FILLER_0_26_277
*944 FILLER_0_26_285
*945 FILLER_0_26_29
*946 FILLER_0_26_3
*947 FILLER_0_26_306
*948 FILLER_0_26_309
*949 FILLER_0_26_331
*950 FILLER_0_26_41
*951 FILLER_0_26_53
*952 FILLER_0_26_65
*953 FILLER_0_26_69
*954 FILLER_0_26_76
*955 FILLER_0_26_92
*956 FILLER_0_27_109
*957 FILLER_0_27_113
*958 FILLER_0_27_117
*959 FILLER_0_27_143
*960 FILLER_0_27_15
*961 FILLER_0_27_155
*962 FILLER_0_27_159
*963 FILLER_0_27_163
*964 FILLER_0_27_167
*965 FILLER_0_27_169
*966 FILLER_0_27_181
*967 FILLER_0_27_193
*968 FILLER_0_27_205
*969 FILLER_0_27_217
*970 FILLER_0_27_222
*971 FILLER_0_27_225
*972 FILLER_0_27_240
*973 FILLER_0_27_261
*974 FILLER_0_27_27
*975 FILLER_0_27_274
*976 FILLER_0_27_281
*977 FILLER_0_27_3
*978 FILLER_0_27_331
*979 FILLER_0_27_39
*980 FILLER_0_27_51
*981 FILLER_0_27_55
*982 FILLER_0_27_57
*983 FILLER_0_27_63
*984 FILLER_0_27_97
*985 FILLER_0_28_100
*986 FILLER_0_28_112
*987 FILLER_0_28_138
*988 FILLER_0_28_141
*989 FILLER_0_28_15
*990 FILLER_0_28_153
*991 FILLER_0_28_165
*992 FILLER_0_28_173
*993 FILLER_0_28_189
*994 FILLER_0_28_195
*995 FILLER_0_28_197
*996 FILLER_0_28_209
*997 FILLER_0_28_218
*998 FILLER_0_28_250
*999 FILLER_0_28_27
*1000 FILLER_0_28_278
*1001 FILLER_0_28_29
*1002 FILLER_0_28_3
*1003 FILLER_0_28_305
*1004 FILLER_0_28_309
*1005 FILLER_0_28_330
*1006 FILLER_0_28_334
*1007 FILLER_0_28_41
*1008 FILLER_0_28_53
*1009 FILLER_0_28_65
*1010 FILLER_0_28_85
*1011 FILLER_0_29_104
*1012 FILLER_0_29_131
*1013 FILLER_0_29_143
*1014 FILLER_0_29_15
*1015 FILLER_0_29_153
*1016 FILLER_0_29_165
*1017 FILLER_0_29_198
*1018 FILLER_0_29_244
*1019 FILLER_0_29_256
*1020 FILLER_0_29_27
*1021 FILLER_0_29_275
*1022 FILLER_0_29_279
*1023 FILLER_0_29_289
*1024 FILLER_0_29_3
*1025 FILLER_0_29_39
*1026 FILLER_0_29_51
*1027 FILLER_0_29_55
*1028 FILLER_0_29_57
*1029 FILLER_0_29_69
*1030 FILLER_0_29_73
*1031 FILLER_0_2_109
*1032 FILLER_0_2_121
*1033 FILLER_0_2_133
*1034 FILLER_0_2_139
*1035 FILLER_0_2_141
*1036 FILLER_0_2_15
*1037 FILLER_0_2_153
*1038 FILLER_0_2_165
*1039 FILLER_0_2_177
*1040 FILLER_0_2_189
*1041 FILLER_0_2_195
*1042 FILLER_0_2_197
*1043 FILLER_0_2_209
*1044 FILLER_0_2_221
*1045 FILLER_0_2_233
*1046 FILLER_0_2_245
*1047 FILLER_0_2_251
*1048 FILLER_0_2_253
*1049 FILLER_0_2_265
*1050 FILLER_0_2_27
*1051 FILLER_0_2_277
*1052 FILLER_0_2_289
*1053 FILLER_0_2_29
*1054 FILLER_0_2_3
*1055 FILLER_0_2_301
*1056 FILLER_0_2_307
*1057 FILLER_0_2_309
*1058 FILLER_0_2_321
*1059 FILLER_0_2_333
*1060 FILLER_0_2_41
*1061 FILLER_0_2_53
*1062 FILLER_0_2_65
*1063 FILLER_0_2_77
*1064 FILLER_0_2_83
*1065 FILLER_0_2_85
*1066 FILLER_0_2_97
*1067 FILLER_0_30_109
*1068 FILLER_0_30_113
*1069 FILLER_0_30_132
*1070 FILLER_0_30_15
*1071 FILLER_0_30_195
*1072 FILLER_0_30_197
*1073 FILLER_0_30_234
*1074 FILLER_0_30_246
*1075 FILLER_0_30_256
*1076 FILLER_0_30_27
*1077 FILLER_0_30_29
*1078 FILLER_0_30_299
*1079 FILLER_0_30_3
*1080 FILLER_0_30_41
*1081 FILLER_0_30_66
*1082 FILLER_0_30_74
*1083 FILLER_0_30_80
*1084 FILLER_0_30_85
*1085 FILLER_0_30_97
*1086 FILLER_0_31_102
*1087 FILLER_0_31_110
*1088 FILLER_0_31_134
*1089 FILLER_0_31_15
*1090 FILLER_0_31_163
*1091 FILLER_0_31_167
*1092 FILLER_0_31_184
*1093 FILLER_0_31_196
*1094 FILLER_0_31_208
*1095 FILLER_0_31_216
*1096 FILLER_0_31_233
*1097 FILLER_0_31_241
*1098 FILLER_0_31_249
*1099 FILLER_0_31_27
*1100 FILLER_0_31_272
*1101 FILLER_0_31_289
*1102 FILLER_0_31_3
*1103 FILLER_0_31_301
*1104 FILLER_0_31_305
*1105 FILLER_0_31_333
*1106 FILLER_0_31_39
*1107 FILLER_0_31_52
*1108 FILLER_0_31_57
*1109 FILLER_0_32_129
*1110 FILLER_0_32_135
*1111 FILLER_0_32_139
*1112 FILLER_0_32_141
*1113 FILLER_0_32_145
*1114 FILLER_0_32_15
*1115 FILLER_0_32_157
*1116 FILLER_0_32_169
*1117 FILLER_0_32_174
*1118 FILLER_0_32_186
*1119 FILLER_0_32_194
*1120 FILLER_0_32_203
*1121 FILLER_0_32_236
*1122 FILLER_0_32_27
*1123 FILLER_0_32_286
*1124 FILLER_0_32_29
*1125 FILLER_0_32_3
*1126 FILLER_0_32_41
*1127 FILLER_0_33_109
*1128 FILLER_0_33_113
*1129 FILLER_0_33_125
*1130 FILLER_0_33_133
*1131 FILLER_0_33_138
*1132 FILLER_0_33_147
*1133 FILLER_0_33_15
*1134 FILLER_0_33_165
*1135 FILLER_0_33_169
*1136 FILLER_0_33_181
*1137 FILLER_0_33_185
*1138 FILLER_0_33_209
*1139 FILLER_0_33_225
*1140 FILLER_0_33_232
*1141 FILLER_0_33_244
*1142 FILLER_0_33_254
*1143 FILLER_0_33_268
*1144 FILLER_0_33_27
*1145 FILLER_0_33_281
*1146 FILLER_0_33_289
*1147 FILLER_0_33_3
*1148 FILLER_0_33_39
*1149 FILLER_0_33_47
*1150 FILLER_0_33_51
*1151 FILLER_0_33_55
*1152 FILLER_0_33_57
*1153 FILLER_0_33_69
*1154 FILLER_0_33_82
*1155 FILLER_0_33_97
*1156 FILLER_0_34_109
*1157 FILLER_0_34_117
*1158 FILLER_0_34_141
*1159 FILLER_0_34_15
*1160 FILLER_0_34_173
*1161 FILLER_0_34_185
*1162 FILLER_0_34_217
*1163 FILLER_0_34_231
*1164 FILLER_0_34_243
*1165 FILLER_0_34_251
*1166 FILLER_0_34_253
*1167 FILLER_0_34_27
*1168 FILLER_0_34_276
*1169 FILLER_0_34_29
*1170 FILLER_0_34_3
*1171 FILLER_0_34_309
*1172 FILLER_0_34_333
*1173 FILLER_0_34_41
*1174 FILLER_0_34_53
*1175 FILLER_0_34_65
*1176 FILLER_0_34_77
*1177 FILLER_0_34_83
*1178 FILLER_0_34_85
*1179 FILLER_0_34_97
*1180 FILLER_0_35_105
*1181 FILLER_0_35_111
*1182 FILLER_0_35_119
*1183 FILLER_0_35_15
*1184 FILLER_0_35_157
*1185 FILLER_0_35_166
*1186 FILLER_0_35_176
*1187 FILLER_0_35_188
*1188 FILLER_0_35_201
*1189 FILLER_0_35_210
*1190 FILLER_0_35_222
*1191 FILLER_0_35_225
*1192 FILLER_0_35_27
*1193 FILLER_0_35_3
*1194 FILLER_0_35_321
*1195 FILLER_0_35_333
*1196 FILLER_0_35_39
*1197 FILLER_0_35_51
*1198 FILLER_0_35_55
*1199 FILLER_0_35_57
*1200 FILLER_0_35_69
*1201 FILLER_0_35_81
*1202 FILLER_0_35_93
*1203 FILLER_0_36_133
*1204 FILLER_0_36_139
*1205 FILLER_0_36_15
*1206 FILLER_0_36_164
*1207 FILLER_0_36_187
*1208 FILLER_0_36_195
*1209 FILLER_0_36_197
*1210 FILLER_0_36_218
*1211 FILLER_0_36_241
*1212 FILLER_0_36_27
*1213 FILLER_0_36_284
*1214 FILLER_0_36_29
*1215 FILLER_0_36_3
*1216 FILLER_0_36_41
*1217 FILLER_0_36_53
*1218 FILLER_0_36_65
*1219 FILLER_0_36_77
*1220 FILLER_0_36_83
*1221 FILLER_0_36_85
*1222 FILLER_0_36_97
*1223 FILLER_0_37_15
*1224 FILLER_0_37_191
*1225 FILLER_0_37_212
*1226 FILLER_0_37_216
*1227 FILLER_0_37_27
*1228 FILLER_0_37_279
*1229 FILLER_0_37_3
*1230 FILLER_0_37_39
*1231 FILLER_0_37_51
*1232 FILLER_0_37_55
*1233 FILLER_0_37_57
*1234 FILLER_0_37_69
*1235 FILLER_0_37_81
*1236 FILLER_0_37_89
*1237 FILLER_0_38_10
*1238 FILLER_0_38_135
*1239 FILLER_0_38_139
*1240 FILLER_0_38_14
*1241 FILLER_0_38_141
*1242 FILLER_0_38_145
*1243 FILLER_0_38_18
*1244 FILLER_0_38_191
*1245 FILLER_0_38_195
*1246 FILLER_0_38_205
*1247 FILLER_0_38_217
*1248 FILLER_0_38_22
*1249 FILLER_0_38_241
*1250 FILLER_0_38_267
*1251 FILLER_0_38_271
*1252 FILLER_0_38_281
*1253 FILLER_0_38_32
*1254 FILLER_0_38_320
*1255 FILLER_0_38_334
*1256 FILLER_0_38_38
*1257 FILLER_0_38_42
*1258 FILLER_0_38_46
*1259 FILLER_0_38_50
*1260 FILLER_0_38_54
*1261 FILLER_0_38_57
*1262 FILLER_0_38_6
*1263 FILLER_0_38_62
*1264 FILLER_0_38_66
*1265 FILLER_0_38_70
*1266 FILLER_0_38_74
*1267 FILLER_0_38_78
*1268 FILLER_0_38_85
*1269 FILLER_0_3_105
*1270 FILLER_0_3_111
*1271 FILLER_0_3_113
*1272 FILLER_0_3_125
*1273 FILLER_0_3_137
*1274 FILLER_0_3_149
*1275 FILLER_0_3_15
*1276 FILLER_0_3_161
*1277 FILLER_0_3_167
*1278 FILLER_0_3_169
*1279 FILLER_0_3_181
*1280 FILLER_0_3_193
*1281 FILLER_0_3_205
*1282 FILLER_0_3_217
*1283 FILLER_0_3_223
*1284 FILLER_0_3_225
*1285 FILLER_0_3_237
*1286 FILLER_0_3_249
*1287 FILLER_0_3_261
*1288 FILLER_0_3_27
*1289 FILLER_0_3_273
*1290 FILLER_0_3_279
*1291 FILLER_0_3_281
*1292 FILLER_0_3_293
*1293 FILLER_0_3_3
*1294 FILLER_0_3_305
*1295 FILLER_0_3_317
*1296 FILLER_0_3_329
*1297 FILLER_0_3_39
*1298 FILLER_0_3_51
*1299 FILLER_0_3_55
*1300 FILLER_0_3_57
*1301 FILLER_0_3_69
*1302 FILLER_0_3_81
*1303 FILLER_0_3_93
*1304 FILLER_0_4_109
*1305 FILLER_0_4_121
*1306 FILLER_0_4_133
*1307 FILLER_0_4_139
*1308 FILLER_0_4_141
*1309 FILLER_0_4_15
*1310 FILLER_0_4_153
*1311 FILLER_0_4_165
*1312 FILLER_0_4_177
*1313 FILLER_0_4_189
*1314 FILLER_0_4_195
*1315 FILLER_0_4_197
*1316 FILLER_0_4_209
*1317 FILLER_0_4_221
*1318 FILLER_0_4_233
*1319 FILLER_0_4_245
*1320 FILLER_0_4_251
*1321 FILLER_0_4_253
*1322 FILLER_0_4_265
*1323 FILLER_0_4_27
*1324 FILLER_0_4_277
*1325 FILLER_0_4_289
*1326 FILLER_0_4_29
*1327 FILLER_0_4_3
*1328 FILLER_0_4_301
*1329 FILLER_0_4_307
*1330 FILLER_0_4_309
*1331 FILLER_0_4_321
*1332 FILLER_0_4_333
*1333 FILLER_0_4_41
*1334 FILLER_0_4_53
*1335 FILLER_0_4_65
*1336 FILLER_0_4_77
*1337 FILLER_0_4_83
*1338 FILLER_0_4_85
*1339 FILLER_0_4_97
*1340 FILLER_0_5_105
*1341 FILLER_0_5_111
*1342 FILLER_0_5_113
*1343 FILLER_0_5_125
*1344 FILLER_0_5_137
*1345 FILLER_0_5_149
*1346 FILLER_0_5_15
*1347 FILLER_0_5_161
*1348 FILLER_0_5_167
*1349 FILLER_0_5_169
*1350 FILLER_0_5_181
*1351 FILLER_0_5_193
*1352 FILLER_0_5_205
*1353 FILLER_0_5_217
*1354 FILLER_0_5_223
*1355 FILLER_0_5_225
*1356 FILLER_0_5_237
*1357 FILLER_0_5_249
*1358 FILLER_0_5_261
*1359 FILLER_0_5_27
*1360 FILLER_0_5_273
*1361 FILLER_0_5_279
*1362 FILLER_0_5_281
*1363 FILLER_0_5_293
*1364 FILLER_0_5_3
*1365 FILLER_0_5_305
*1366 FILLER_0_5_317
*1367 FILLER_0_5_329
*1368 FILLER_0_5_39
*1369 FILLER_0_5_51
*1370 FILLER_0_5_55
*1371 FILLER_0_5_57
*1372 FILLER_0_5_69
*1373 FILLER_0_5_81
*1374 FILLER_0_5_93
*1375 FILLER_0_6_109
*1376 FILLER_0_6_121
*1377 FILLER_0_6_133
*1378 FILLER_0_6_139
*1379 FILLER_0_6_141
*1380 FILLER_0_6_15
*1381 FILLER_0_6_153
*1382 FILLER_0_6_165
*1383 FILLER_0_6_177
*1384 FILLER_0_6_189
*1385 FILLER_0_6_195
*1386 FILLER_0_6_197
*1387 FILLER_0_6_209
*1388 FILLER_0_6_221
*1389 FILLER_0_6_233
*1390 FILLER_0_6_245
*1391 FILLER_0_6_251
*1392 FILLER_0_6_253
*1393 FILLER_0_6_265
*1394 FILLER_0_6_27
*1395 FILLER_0_6_277
*1396 FILLER_0_6_289
*1397 FILLER_0_6_29
*1398 FILLER_0_6_3
*1399 FILLER_0_6_301
*1400 FILLER_0_6_307
*1401 FILLER_0_6_309
*1402 FILLER_0_6_321
*1403 FILLER_0_6_333
*1404 FILLER_0_6_41
*1405 FILLER_0_6_53
*1406 FILLER_0_6_65
*1407 FILLER_0_6_77
*1408 FILLER_0_6_83
*1409 FILLER_0_6_85
*1410 FILLER_0_6_97
*1411 FILLER_0_7_105
*1412 FILLER_0_7_111
*1413 FILLER_0_7_113
*1414 FILLER_0_7_125
*1415 FILLER_0_7_137
*1416 FILLER_0_7_149
*1417 FILLER_0_7_15
*1418 FILLER_0_7_161
*1419 FILLER_0_7_167
*1420 FILLER_0_7_169
*1421 FILLER_0_7_181
*1422 FILLER_0_7_193
*1423 FILLER_0_7_205
*1424 FILLER_0_7_217
*1425 FILLER_0_7_223
*1426 FILLER_0_7_225
*1427 FILLER_0_7_237
*1428 FILLER_0_7_249
*1429 FILLER_0_7_261
*1430 FILLER_0_7_27
*1431 FILLER_0_7_273
*1432 FILLER_0_7_279
*1433 FILLER_0_7_281
*1434 FILLER_0_7_293
*1435 FILLER_0_7_3
*1436 FILLER_0_7_305
*1437 FILLER_0_7_317
*1438 FILLER_0_7_329
*1439 FILLER_0_7_39
*1440 FILLER_0_7_51
*1441 FILLER_0_7_55
*1442 FILLER_0_7_57
*1443 FILLER_0_7_69
*1444 FILLER_0_7_81
*1445 FILLER_0_7_93
*1446 FILLER_0_8_109
*1447 FILLER_0_8_121
*1448 FILLER_0_8_133
*1449 FILLER_0_8_139
*1450 FILLER_0_8_141
*1451 FILLER_0_8_15
*1452 FILLER_0_8_153
*1453 FILLER_0_8_165
*1454 FILLER_0_8_177
*1455 FILLER_0_8_189
*1456 FILLER_0_8_195
*1457 FILLER_0_8_197
*1458 FILLER_0_8_209
*1459 FILLER_0_8_221
*1460 FILLER_0_8_233
*1461 FILLER_0_8_245
*1462 FILLER_0_8_251
*1463 FILLER_0_8_253
*1464 FILLER_0_8_265
*1465 FILLER_0_8_27
*1466 FILLER_0_8_277
*1467 FILLER_0_8_289
*1468 FILLER_0_8_29
*1469 FILLER_0_8_3
*1470 FILLER_0_8_301
*1471 FILLER_0_8_307
*1472 FILLER_0_8_309
*1473 FILLER_0_8_321
*1474 FILLER_0_8_333
*1475 FILLER_0_8_41
*1476 FILLER_0_8_53
*1477 FILLER_0_8_65
*1478 FILLER_0_8_77
*1479 FILLER_0_8_83
*1480 FILLER_0_8_85
*1481 FILLER_0_8_97
*1482 FILLER_0_9_105
*1483 FILLER_0_9_111
*1484 FILLER_0_9_113
*1485 FILLER_0_9_125
*1486 FILLER_0_9_137
*1487 FILLER_0_9_149
*1488 FILLER_0_9_15
*1489 FILLER_0_9_161
*1490 FILLER_0_9_167
*1491 FILLER_0_9_169
*1492 FILLER_0_9_181
*1493 FILLER_0_9_193
*1494 FILLER_0_9_205
*1495 FILLER_0_9_217
*1496 FILLER_0_9_223
*1497 FILLER_0_9_225
*1498 FILLER_0_9_237
*1499 FILLER_0_9_249
*1500 FILLER_0_9_261
*1501 FILLER_0_9_27
*1502 FILLER_0_9_273
*1503 FILLER_0_9_279
*1504 FILLER_0_9_281
*1505 FILLER_0_9_293
*1506 FILLER_0_9_3
*1507 FILLER_0_9_305
*1508 FILLER_0_9_317
*1509 FILLER_0_9_329
*1510 FILLER_0_9_39
*1511 FILLER_0_9_51
*1512 FILLER_0_9_55
*1513 FILLER_0_9_57
*1514 FILLER_0_9_69
*1515 FILLER_0_9_81
*1516 FILLER_0_9_93
*1517 PHY_EDGE_ROW_0_Left_39
*1518 PHY_EDGE_ROW_0_Right_0
*1519 PHY_EDGE_ROW_10_Left_49
*1520 PHY_EDGE_ROW_10_Right_10
*1521 PHY_EDGE_ROW_11_Left_50
*1522 PHY_EDGE_ROW_11_Right_11
*1523 PHY_EDGE_ROW_12_Left_51
*1524 PHY_EDGE_ROW_12_Right_12
*1525 PHY_EDGE_ROW_13_Left_52
*1526 PHY_EDGE_ROW_13_Right_13
*1527 PHY_EDGE_ROW_14_Left_53
*1528 PHY_EDGE_ROW_14_Right_14
*1529 PHY_EDGE_ROW_15_Left_54
*1530 PHY_EDGE_ROW_15_Right_15
*1531 PHY_EDGE_ROW_16_Left_55
*1532 PHY_EDGE_ROW_16_Right_16
*1533 PHY_EDGE_ROW_17_Left_56