*SPEF "ieee 1481-1999"
*DESIGN "tt_um_wokwi_394618582085551105"
*DATE "17:13:30 Monday April 15, 2024"
*VENDOR "The OpenROAD Project"
*PROGRAM "OpenROAD"
*VERSION "0889970d1790a2617e69f253221b8bd7626e51dc"
*DESIGN_FLOW "NAME_SCOPE LOCAL" "PIN_CAP NONE"
*DIVIDER /
*DELIMITER :
*BUS_DELIMITER []
*T_UNIT 1 NS
*C_UNIT 1 PF
*R_UNIT 1 OHM
*L_UNIT 1 HENRY

*NAME_MAP
*3 clk
*4 ena
*5 rst_n
*6 ui_in[0]
*7 ui_in[1]
*8 ui_in[2]
*9 ui_in[3]
*10 ui_in[4]
*11 ui_in[5]
*12 ui_in[6]
*13 ui_in[7]
*14 uio_in[0]
*15 uio_in[1]
*16 uio_in[2]
*17 uio_in[3]
*18 uio_in[4]
*19 uio_in[5]
*20 uio_in[6]
*21 uio_in[7]
*22 net8
*23 net9
*24 net10
*25 net11
*26 net16
*27 net17
*28 net18
*29 net19
*30 net12
*31 net13
*32 net14
*33 net15
*34 uio_out[4]
*35 uio_out[5]
*36 uio_out[6]
*37 uio_out[7]
*38 uo_out[0]
*39 uo_out[1]
*40 uo_out[2]
*41 uo_out[3]
*42 uo_out[4]
*43 uo_out[5]
*44 uo_out[6]
*45 uo_out[7]
*46 _000_
*47 _001_
*48 _002_
*49 _003_
*50 _004_
*51 _005_
*52 _006_
*53 _007_
*54 _008_
*55 _009_
*56 _010_
*57 _011_
*58 _012_
*59 _013_
*60 _014_
*61 _015_
*62 _016_
*63 _017_
*64 _018_
*65 _019_
*66 _020_
*67 _021_
*68 _022_
*69 _023_
*70 _024_
*71 _025_
*72 _026_
*73 _027_
*74 _028_
*75 _029_
*76 _030_
*77 _031_
*78 _032_
*79 _033_
*80 _034_
*81 _035_
*82 _036_
*83 _037_
*84 _038_
*85 _039_
*86 _040_
*87 _041_
*88 _042_
*89 _043_
*90 _044_
*91 _045_
*92 _046_
*93 _047_
*94 clknet_0_clk
*95 clknet_1_0__leaf_clk
*96 clknet_1_1__leaf_clk
*97 flop1\.q
*98 flop10\.q
*99 flop11\.q
*100 flop12\.q
*101 flop13\.q
*102 flop14\.q
*103 flop15\.q
*104 flop16\.q
*105 flop17\.q
*106 flop2\.q
*107 flop21\.d
*108 flop21\.q
*109 flop22\.d
*110 flop23\.d
*111 flop3\.q
*112 flop4\.q
*113 flop5\.q
*114 flop6\.q
*115 flop7\.q
*116 flop8\.q
*117 flop9\.q
*118 net1
*119 net2
*120 net20
*121 net21
*122 net22
*123 net23
*124 net24
*125 net25
*126 net26
*127 net27
*128 net28
*129 net29
*130 net3
*131 net30
*132 net31
*133 net32
*134 net4
*135 net5
*136 net6
*137 net7
*138 or1\.out
*139 or2\.out
*140 or3\.out
*141 or4\.out
*142 or5\.out
*143 or6\.out
*144 or7\.out
*145 FILLER_0_0_109
*146 FILLER_0_0_113
*147 FILLER_0_0_125
*148 FILLER_0_0_137
*149 FILLER_0_0_141
*150 FILLER_0_0_15
*151 FILLER_0_0_153
*152 FILLER_0_0_165
*153 FILLER_0_0_169
*154 FILLER_0_0_181
*155 FILLER_0_0_193
*156 FILLER_0_0_197
*157 FILLER_0_0_209
*158 FILLER_0_0_221
*159 FILLER_0_0_225
*160 FILLER_0_0_237
*161 FILLER_0_0_249
*162 FILLER_0_0_253
*163 FILLER_0_0_265
*164 FILLER_0_0_27
*165 FILLER_0_0_277
*166 FILLER_0_0_281
*167 FILLER_0_0_29
*168 FILLER_0_0_293
*169 FILLER_0_0_3
*170 FILLER_0_0_305
*171 FILLER_0_0_309
*172 FILLER_0_0_321
*173 FILLER_0_0_333
*174 FILLER_0_0_41
*175 FILLER_0_0_53
*176 FILLER_0_0_57
*177 FILLER_0_0_69
*178 FILLER_0_0_81
*179 FILLER_0_0_85
*180 FILLER_0_0_97
*181 FILLER_0_10_109
*182 FILLER_0_10_121
*183 FILLER_0_10_133
*184 FILLER_0_10_139
*185 FILLER_0_10_141
*186 FILLER_0_10_15
*187 FILLER_0_10_153
*188 FILLER_0_10_165
*189 FILLER_0_10_177
*190 FILLER_0_10_189
*191 FILLER_0_10_195
*192 FILLER_0_10_197
*193 FILLER_0_10_209
*194 FILLER_0_10_221
*195 FILLER_0_10_233
*196 FILLER_0_10_245
*197 FILLER_0_10_251
*198 FILLER_0_10_253
*199 FILLER_0_10_265
*200 FILLER_0_10_27
*201 FILLER_0_10_277
*202 FILLER_0_10_289
*203 FILLER_0_10_29
*204 FILLER_0_10_3
*205 FILLER_0_10_301
*206 FILLER_0_10_307
*207 FILLER_0_10_309
*208 FILLER_0_10_321
*209 FILLER_0_10_333
*210 FILLER_0_10_41
*211 FILLER_0_10_53
*212 FILLER_0_10_65
*213 FILLER_0_10_77
*214 FILLER_0_10_83
*215 FILLER_0_10_85
*216 FILLER_0_10_97
*217 FILLER_0_11_105
*218 FILLER_0_11_111
*219 FILLER_0_11_113
*220 FILLER_0_11_125
*221 FILLER_0_11_137
*222 FILLER_0_11_149
*223 FILLER_0_11_15
*224 FILLER_0_11_161
*225 FILLER_0_11_167
*226 FILLER_0_11_169
*227 FILLER_0_11_181
*228 FILLER_0_11_193
*229 FILLER_0_11_205
*230 FILLER_0_11_217
*231 FILLER_0_11_223
*232 FILLER_0_11_225
*233 FILLER_0_11_237
*234 FILLER_0_11_249
*235 FILLER_0_11_261
*236 FILLER_0_11_27
*237 FILLER_0_11_273
*238 FILLER_0_11_279
*239 FILLER_0_11_281
*240 FILLER_0_11_293
*241 FILLER_0_11_3
*242 FILLER_0_11_305
*243 FILLER_0_11_317
*244 FILLER_0_11_329
*245 FILLER_0_11_39
*246 FILLER_0_11_51
*247 FILLER_0_11_55
*248 FILLER_0_11_57
*249 FILLER_0_11_69
*250 FILLER_0_11_81
*251 FILLER_0_11_93
*252 FILLER_0_12_109
*253 FILLER_0_12_121
*254 FILLER_0_12_133
*255 FILLER_0_12_139
*256 FILLER_0_12_141
*257 FILLER_0_12_15
*258 FILLER_0_12_153
*259 FILLER_0_12_165
*260 FILLER_0_12_177
*261 FILLER_0_12_189
*262 FILLER_0_12_195
*263 FILLER_0_12_197
*264 FILLER_0_12_209
*265 FILLER_0_12_221
*266 FILLER_0_12_233
*267 FILLER_0_12_245
*268 FILLER_0_12_251
*269 FILLER_0_12_253
*270 FILLER_0_12_265
*271 FILLER_0_12_27
*272 FILLER_0_12_277
*273 FILLER_0_12_289
*274 FILLER_0_12_29
*275 FILLER_0_12_3
*276 FILLER_0_12_301
*277 FILLER_0_12_307
*278 FILLER_0_12_309
*279 FILLER_0_12_321
*280 FILLER_0_12_333
*281 FILLER_0_12_41
*282 FILLER_0_12_53
*283 FILLER_0_12_65
*284 FILLER_0_12_77
*285 FILLER_0_12_83
*286 FILLER_0_12_85
*287 FILLER_0_12_97
*288 FILLER_0_13_105
*289 FILLER_0_13_111
*290 FILLER_0_13_113
*291 FILLER_0_13_125
*292 FILLER_0_13_137
*293 FILLER_0_13_149
*294 FILLER_0_13_15
*295 FILLER_0_13_161
*296 FILLER_0_13_167
*297 FILLER_0_13_169
*298 FILLER_0_13_181
*299 FILLER_0_13_193
*300 FILLER_0_13_205
*301 FILLER_0_13_217
*302 FILLER_0_13_223
*303 FILLER_0_13_225
*304 FILLER_0_13_237
*305 FILLER_0_13_249
*306 FILLER_0_13_261
*307 FILLER_0_13_27
*308 FILLER_0_13_273
*309 FILLER_0_13_279
*310 FILLER_0_13_281
*311 FILLER_0_13_293
*312 FILLER_0_13_3
*313 FILLER_0_13_305
*314 FILLER_0_13_317
*315 FILLER_0_13_329
*316 FILLER_0_13_39
*317 FILLER_0_13_51
*318 FILLER_0_13_55
*319 FILLER_0_13_57
*320 FILLER_0_13_69
*321 FILLER_0_13_81
*322 FILLER_0_13_93
*323 FILLER_0_14_109
*324 FILLER_0_14_121
*325 FILLER_0_14_133
*326 FILLER_0_14_139
*327 FILLER_0_14_141
*328 FILLER_0_14_15
*329 FILLER_0_14_153
*330 FILLER_0_14_165
*331 FILLER_0_14_177
*332 FILLER_0_14_189
*333 FILLER_0_14_195
*334 FILLER_0_14_197
*335 FILLER_0_14_209
*336 FILLER_0_14_221
*337 FILLER_0_14_233
*338 FILLER_0_14_245
*339 FILLER_0_14_251
*340 FILLER_0_14_253
*341 FILLER_0_14_265
*342 FILLER_0_14_27
*343 FILLER_0_14_277
*344 FILLER_0_14_289
*345 FILLER_0_14_29
*346 FILLER_0_14_3
*347 FILLER_0_14_301
*348 FILLER_0_14_307
*349 FILLER_0_14_309
*350 FILLER_0_14_321
*351 FILLER_0_14_333
*352 FILLER_0_14_41
*353 FILLER_0_14_53
*354 FILLER_0_14_65
*355 FILLER_0_14_77
*356 FILLER_0_14_83
*357 FILLER_0_14_85
*358 FILLER_0_14_97
*359 FILLER_0_15_105
*360 FILLER_0_15_111
*361 FILLER_0_15_113
*362 FILLER_0_15_125
*363 FILLER_0_15_137
*364 FILLER_0_15_149
*365 FILLER_0_15_15
*366 FILLER_0_15_161
*367 FILLER_0_15_167
*368 FILLER_0_15_169
*369 FILLER_0_15_181
*370 FILLER_0_15_193
*371 FILLER_0_15_205
*372 FILLER_0_15_217
*373 FILLER_0_15_223
*374 FILLER_0_15_225
*375 FILLER_0_15_237
*376 FILLER_0_15_249
*377 FILLER_0_15_261
*378 FILLER_0_15_27
*379 FILLER_0_15_273
*380 FILLER_0_15_279
*381 FILLER_0_15_281
*382 FILLER_0_15_293
*383 FILLER_0_15_3
*384 FILLER_0_15_305
*385 FILLER_0_15_317
*386 FILLER_0_15_329
*387 FILLER_0_15_39
*388 FILLER_0_15_51
*389 FILLER_0_15_55
*390 FILLER_0_15_57
*391 FILLER_0_15_69
*392 FILLER_0_15_81
*393 FILLER_0_15_93
*394 FILLER_0_16_109
*395 FILLER_0_16_121
*396 FILLER_0_16_133
*397 FILLER_0_16_139
*398 FILLER_0_16_141
*399 FILLER_0_16_15
*400 FILLER_0_16_153
*401 FILLER_0_16_165
*402 FILLER_0_16_177
*403 FILLER_0_16_189
*404 FILLER_0_16_195
*405 FILLER_0_16_197
*406 FILLER_0_16_209
*407 FILLER_0_16_221
*408 FILLER_0_16_233
*409 FILLER_0_16_245
*410 FILLER_0_16_251
*411 FILLER_0_16_253
*412 FILLER_0_16_265
*413 FILLER_0_16_27
*414 FILLER_0_16_277
*415 FILLER_0_16_289
*416 FILLER_0_16_29
*417 FILLER_0_16_3
*418 FILLER_0_16_301
*419 FILLER_0_16_307
*420 FILLER_0_16_309
*421 FILLER_0_16_321
*422 FILLER_0_16_333
*423 FILLER_0_16_41
*424 FILLER_0_16_53
*425 FILLER_0_16_65
*426 FILLER_0_16_77
*427 FILLER_0_16_83
*428 FILLER_0_16_85
*429 FILLER_0_16_97
*430 FILLER_0_17_105
*431 FILLER_0_17_111
*432 FILLER_0_17_113
*433 FILLER_0_17_125
*434 FILLER_0_17_137
*435 FILLER_0_17_149
*436 FILLER_0_17_15
*437 FILLER_0_17_161
*438 FILLER_0_17_167
*439 FILLER_0_17_169
*440 FILLER_0_17_181
*441 FILLER_0_17_193
*442 FILLER_0_17_205
*443 FILLER_0_17_217
*444 FILLER_0_17_223
*445 FILLER_0_17_225
*446 FILLER_0_17_237
*447 FILLER_0_17_249
*448 FILLER_0_17_261
*449 FILLER_0_17_27
*450 FILLER_0_17_273
*451 FILLER_0_17_279
*452 FILLER_0_17_281
*453 FILLER_0_17_293
*454 FILLER_0_17_3
*455 FILLER_0_17_305
*456 FILLER_0_17_317
*457 FILLER_0_17_329
*458 FILLER_0_17_39
*459 FILLER_0_17_51
*460 FILLER_0_17_55
*461 FILLER_0_17_57
*462 FILLER_0_17_69
*463 FILLER_0_17_81
*464 FILLER_0_17_93
*465 FILLER_0_18_109
*466 FILLER_0_18_121
*467 FILLER_0_18_133
*468 FILLER_0_18_139
*469 FILLER_0_18_141
*470 FILLER_0_18_15
*471 FILLER_0_18_153
*472 FILLER_0_18_165
*473 FILLER_0_18_177
*474 FILLER_0_18_189
*475 FILLER_0_18_195
*476 FILLER_0_18_197
*477 FILLER_0_18_209
*478 FILLER_0_18_221
*479 FILLER_0_18_233
*480 FILLER_0_18_245
*481 FILLER_0_18_251
*482 FILLER_0_18_253
*483 FILLER_0_18_265
*484 FILLER_0_18_27
*485 FILLER_0_18_277
*486 FILLER_0_18_289
*487 FILLER_0_18_29
*488 FILLER_0_18_3
*489 FILLER_0_18_301
*490 FILLER_0_18_307
*491 FILLER_0_18_309
*492 FILLER_0_18_321
*493 FILLER_0_18_333
*494 FILLER_0_18_41
*495 FILLER_0_18_53
*496 FILLER_0_18_65
*497 FILLER_0_18_77
*498 FILLER_0_18_83
*499 FILLER_0_18_85
*500 FILLER_0_18_97
*501 FILLER_0_19_105
*502 FILLER_0_19_111
*503 FILLER_0_19_113
*504 FILLER_0_19_125
*505 FILLER_0_19_137
*506 FILLER_0_19_149
*507 FILLER_0_19_15
*508 FILLER_0_19_161
*509 FILLER_0_19_167
*510 FILLER_0_19_169
*511 FILLER_0_19_181
*512 FILLER_0_19_193
*513 FILLER_0_19_205
*514 FILLER_0_19_217
*515 FILLER_0_19_223
*516 FILLER_0_19_225
*517 FILLER_0_19_237
*518 FILLER_0_19_249
*519 FILLER_0_19_261
*520 FILLER_0_19_27
*521 FILLER_0_19_273
*522 FILLER_0_19_279
*523 FILLER_0_19_281
*524 FILLER_0_19_293
*525 FILLER_0_19_3
*526 FILLER_0_19_305
*527 FILLER_0_19_317
*528 FILLER_0_19_329
*529 FILLER_0_19_39
*530 FILLER_0_19_51
*531 FILLER_0_19_55
*532 FILLER_0_19_57
*533 FILLER_0_19_69
*534 FILLER_0_19_81
*535 FILLER_0_19_93
*536 FILLER_0_1_105
*537 FILLER_0_1_111
*538 FILLER_0_1_113
*539 FILLER_0_1_125
*540 FILLER_0_1_137
*541 FILLER_0_1_149
*542 FILLER_0_1_15
*543 FILLER_0_1_161
*544 FILLER_0_1_167
*545 FILLER_0_1_169
*546 FILLER_0_1_181
*547 FILLER_0_1_193
*548 FILLER_0_1_205
*549 FILLER_0_1_217
*550 FILLER_0_1_223
*551 FILLER_0_1_225
*552 FILLER_0_1_237
*553 FILLER_0_1_249
*554 FILLER_0_1_261
*555 FILLER_0_1_27
*556 FILLER_0_1_273
*557 FILLER_0_1_279
*558 FILLER_0_1_281
*559 FILLER_0_1_293
*560 FILLER_0_1_3
*561 FILLER_0_1_305
*562 FILLER_0_1_317
*563 FILLER_0_1_329
*564 FILLER_0_1_39
*565 FILLER_0_1_51
*566 FILLER_0_1_55
*567 FILLER_0_1_57
*568 FILLER_0_1_69
*569 FILLER_0_1_81
*570 FILLER_0_1_93
*571 FILLER_0_20_109
*572 FILLER_0_20_121
*573 FILLER_0_20_133
*574 FILLER_0_20_139
*575 FILLER_0_20_141
*576 FILLER_0_20_15
*577 FILLER_0_20_153
*578 FILLER_0_20_165
*579 FILLER_0_20_177
*580 FILLER_0_20_189
*581 FILLER_0_20_195
*582 FILLER_0_20_197
*583 FILLER_0_20_209
*584 FILLER_0_20_221
*585 FILLER_0_20_233
*586 FILLER_0_20_245
*587 FILLER_0_20_251
*588 FILLER_0_20_253
*589 FILLER_0_20_265
*590 FILLER_0_20_27
*591 FILLER_0_20_277
*592 FILLER_0_20_289
*593 FILLER_0_20_29
*594 FILLER_0_20_3
*595 FILLER_0_20_301
*596 FILLER_0_20_307
*597 FILLER_0_20_309
*598 FILLER_0_20_321
*599 FILLER_0_20_333
*600 FILLER_0_20_41
*601 FILLER_0_20_53
*602 FILLER_0_20_65
*603 FILLER_0_20_77
*604 FILLER_0_20_83
*605 FILLER_0_20_85
*606 FILLER_0_20_97
*607 FILLER_0_21_105
*608 FILLER_0_21_111
*609 FILLER_0_21_113
*610 FILLER_0_21_125
*611 FILLER_0_21_137
*612 FILLER_0_21_149
*613 FILLER_0_21_15
*614 FILLER_0_21_161
*615 FILLER_0_21_167
*616 FILLER_0_21_169
*617 FILLER_0_21_181
*618 FILLER_0_21_193
*619 FILLER_0_21_205
*620 FILLER_0_21_217
*621 FILLER_0_21_223
*622 FILLER_0_21_225
*623 FILLER_0_21_237
*624 FILLER_0_21_249
*625 FILLER_0_21_261
*626 FILLER_0_21_27
*627 FILLER_0_21_273
*628 FILLER_0_21_279
*629 FILLER_0_21_281
*630 FILLER_0_21_293
*631 FILLER_0_21_3
*632 FILLER_0_21_305
*633 FILLER_0_21_317
*634 FILLER_0_21_329
*635 FILLER_0_21_39
*636 FILLER_0_21_51
*637 FILLER_0_21_55
*638 FILLER_0_21_57
*639 FILLER_0_21_69
*640 FILLER_0_21_81
*641 FILLER_0_21_93
*642 FILLER_0_22_109
*643 FILLER_0_22_121
*644 FILLER_0_22_133
*645 FILLER_0_22_139
*646 FILLER_0_22_141
*647 FILLER_0_22_15
*648 FILLER_0_22_153
*649 FILLER_0_22_165
*650 FILLER_0_22_177
*651 FILLER_0_22_189
*652 FILLER_0_22_195
*653 FILLER_0_22_197
*654 FILLER_0_22_209
*655 FILLER_0_22_221
*656 FILLER_0_22_233
*657 FILLER_0_22_245
*658 FILLER_0_22_251
*659 FILLER_0_22_253
*660 FILLER_0_22_265
*661 FILLER_0_22_27
*662 FILLER_0_22_277
*663 FILLER_0_22_289
*664 FILLER_0_22_29
*665 FILLER_0_22_3
*666 FILLER_0_22_301
*667 FILLER_0_22_307
*668 FILLER_0_22_309
*669 FILLER_0_22_321
*670 FILLER_0_22_333
*671 FILLER_0_22_41
*672 FILLER_0_22_53
*673 FILLER_0_22_65
*674 FILLER_0_22_77
*675 FILLER_0_22_83
*676 FILLER_0_22_85
*677 FILLER_0_22_97
*678 FILLER_0_23_105
*679 FILLER_0_23_111
*680 FILLER_0_23_113
*681 FILLER_0_23_125
*682 FILLER_0_23_137
*683 FILLER_0_23_149
*684 FILLER_0_23_15
*685 FILLER_0_23_161
*686 FILLER_0_23_167
*687 FILLER_0_23_169
*688 FILLER_0_23_181
*689 FILLER_0_23_193
*690 FILLER_0_23_205
*691 FILLER_0_23_217
*692 FILLER_0_23_223
*693 FILLER_0_23_225
*694 FILLER_0_23_237
*695 FILLER_0_23_249
*696 FILLER_0_23_261
*697 FILLER_0_23_27
*698 FILLER_0_23_273
*699 FILLER_0_23_279
*700 FILLER_0_23_281
*701 FILLER_0_23_293
*702 FILLER_0_23_3
*703 FILLER_0_23_305
*704 FILLER_0_23_317
*705 FILLER_0_23_329
*706 FILLER_0_23_39
*707 FILLER_0_23_51
*708 FILLER_0_23_55
*709 FILLER_0_23_57
*710 FILLER_0_23_69
*711 FILLER_0_23_81
*712 FILLER_0_23_93
*713 FILLER_0_24_109
*714 FILLER_0_24_121
*715 FILLER_0_24_133
*716 FILLER_0_24_139
*717 FILLER_0_24_141
*718 FILLER_0_24_15
*719 FILLER_0_24_153
*720 FILLER_0_24_165
*721 FILLER_0_24_177
*722 FILLER_0_24_189
*723 FILLER_0_24_195
*724 FILLER_0_24_197
*725 FILLER_0_24_209
*726 FILLER_0_24_221
*727 FILLER_0_24_233
*728 FILLER_0_24_245
*729 FILLER_0_24_251
*730 FILLER_0_24_253
*731 FILLER_0_24_265
*732 FILLER_0_24_27
*733 FILLER_0_24_277
*734 FILLER_0_24_289
*735 FILLER_0_24_29
*736 FILLER_0_24_3
*737 FILLER_0_24_301
*738 FILLER_0_24_307
*739 FILLER_0_24_309
*740 FILLER_0_24_321
*741 FILLER_0_24_333
*742 FILLER_0_24_41
*743 FILLER_0_24_53
*744 FILLER_0_24_65
*745 FILLER_0_24_77
*746 FILLER_0_24_83
*747 FILLER_0_24_85
*748 FILLER_0_24_97
*749 FILLER_0_25_105
*750 FILLER_0_25_111
*751 FILLER_0_25_113
*752 FILLER_0_25_125
*753 FILLER_0_25_137
*754 FILLER_0_25_149
*755 FILLER_0_25_15
*756 FILLER_0_25_161
*757 FILLER_0_25_167
*758 FILLER_0_25_169
*759 FILLER_0_25_181
*760 FILLER_0_25_193
*761 FILLER_0_25_205
*762 FILLER_0_25_217
*763 FILLER_0_25_223
*764 FILLER_0_25_225
*765 FILLER_0_25_237
*766 FILLER_0_25_249
*767 FILLER_0_25_261
*768 FILLER_0_25_27
*769 FILLER_0_25_273
*770 FILLER_0_25_279
*771 FILLER_0_25_281
*772 FILLER_0_25_293
*773 FILLER_0_25_3
*774 FILLER_0_25_305
*775 FILLER_0_25_317
*776 FILLER_0_25_329
*777 FILLER_0_25_39
*778 FILLER_0_25_51
*779 FILLER_0_25_55
*780 FILLER_0_25_57
*781 FILLER_0_25_69
*782 FILLER_0_25_81
*783 FILLER_0_25_93
*784 FILLER_0_26_109
*785 FILLER_0_26_121
*786 FILLER_0_26_133
*787 FILLER_0_26_139
*788 FILLER_0_26_141
*789 FILLER_0_26_15
*790 FILLER_0_26_153
*791 FILLER_0_26_165
*792 FILLER_0_26_177
*793 FILLER_0_26_189
*794 FILLER_0_26_195
*795 FILLER_0_26_197
*796 FILLER_0_26_209
*797 FILLER_0_26_221
*798 FILLER_0_26_233
*799 FILLER_0_26_245
*800 FILLER_0_26_251
*801 FILLER_0_26_253
*802 FILLER_0_26_265
*803 FILLER_0_26_27
*804 FILLER_0_26_277
*805 FILLER_0_26_289
*806 FILLER_0_26_29
*807 FILLER_0_26_3
*808 FILLER_0_26_301
*809 FILLER_0_26_307
*810 FILLER_0_26_309
*811 FILLER_0_26_321
*812 FILLER_0_26_333
*813 FILLER_0_26_41
*814 FILLER_0_26_53
*815 FILLER_0_26_65
*816 FILLER_0_26_77
*817 FILLER_0_26_83
*818 FILLER_0_26_85
*819 FILLER_0_26_97
*820 FILLER_0_27_105
*821 FILLER_0_27_111
*822 FILLER_0_27_113
*823 FILLER_0_27_125
*824 FILLER_0_27_137
*825 FILLER_0_27_149
*826 FILLER_0_27_15
*827 FILLER_0_27_161
*828 FILLER_0_27_167
*829 FILLER_0_27_169
*830 FILLER_0_27_181
*831 FILLER_0_27_193
*832 FILLER_0_27_205
*833 FILLER_0_27_217
*834 FILLER_0_27_223
*835 FILLER_0_27_225
*836 FILLER_0_27_237
*837 FILLER_0_27_249
*838 FILLER_0_27_261
*839 FILLER_0_27_27
*840 FILLER_0_27_273
*841 FILLER_0_27_279
*842 FILLER_0_27_281
*843 FILLER_0_27_293
*844 FILLER_0_27_3
*845 FILLER_0_27_305
*846 FILLER_0_27_317
*847 FILLER_0_27_329
*848 FILLER_0_27_39
*849 FILLER_0_27_51
*850 FILLER_0_27_55
*851 FILLER_0_27_57
*852 FILLER_0_27_69
*853 FILLER_0_27_81
*854 FILLER_0_27_93
*855 FILLER_0_28_109
*856 FILLER_0_28_121
*857 FILLER_0_28_133
*858 FILLER_0_28_139
*859 FILLER_0_28_141
*860 FILLER_0_28_15
*861 FILLER_0_28_153
*862 FILLER_0_28_165
*863 FILLER_0_28_177
*864 FILLER_0_28_189
*865 FILLER_0_28_195
*866 FILLER_0_28_197
*867 FILLER_0_28_209
*868 FILLER_0_28_221
*869 FILLER_0_28_233
*870 FILLER_0_28_245
*871 FILLER_0_28_251
*872 FILLER_0_28_253
*873 FILLER_0_28_265
*874 FILLER_0_28_27
*875 FILLER_0_28_277
*876 FILLER_0_28_289
*877 FILLER_0_28_29
*878 FILLER_0_28_3
*879 FILLER_0_28_301
*880 FILLER_0_28_307
*881 FILLER_0_28_309
*882 FILLER_0_28_321
*883 FILLER_0_28_333
*884 FILLER_0_28_41
*885 FILLER_0_28_53
*886 FILLER_0_28_65
*887 FILLER_0_28_77
*888 FILLER_0_28_83
*889 FILLER_0_28_85
*890 FILLER_0_28_97
*891 FILLER_0_29_105
*892 FILLER_0_29_111
*893 FILLER_0_29_113
*894 FILLER_0_29_125
*895 FILLER_0_29_137
*896 FILLER_0_29_149
*897 FILLER_0_29_15
*898 FILLER_0_29_161
*899 FILLER_0_29_167
*900 FILLER_0_29_169
*901 FILLER_0_29_181
*902 FILLER_0_29_193
*903 FILLER_0_29_205
*904 FILLER_0_29_217
*905 FILLER_0_29_223
*906 FILLER_0_29_225
*907 FILLER_0_29_237
*908 FILLER_0_29_249
*909 FILLER_0_29_261
*910 FILLER_0_29_27
*911 FILLER_0_29_273
*912 FILLER_0_29_279
*913 FILLER_0_29_281
*914 FILLER_0_29_293
*915 FILLER_0_29_3
*916 FILLER_0_29_305
*917 FILLER_0_29_317
*918 FILLER_0_29_329
*919 FILLER_0_29_39
*920 FILLER_0_29_51
*921 FILLER_0_29_55
*922 FILLER_0_29_57
*923 FILLER_0_29_69
*924 FILLER_0_29_81
*925 FILLER_0_29_93
*926 FILLER_0_2_109
*927 FILLER_0_2_121
*928 FILLER_0_2_133
*929 FILLER_0_2_139
*930 FILLER_0_2_141
*931 FILLER_0_2_15
*932 FILLER_0_2_153
*933 FILLER_0_2_165
*934 FILLER_0_2_177
*935 FILLER_0_2_189
*936 FILLER_0_2_195
*937 FILLER_0_2_197
*938 FILLER_0_2_209
*939 FILLER_0_2_221
*940 FILLER_0_2_233
*941 FILLER_0_2_245
*942 FILLER_0_2_251
*943 FILLER_0_2_253
*944 FILLER_0_2_265
*945 FILLER_0_2_27
*946 FILLER_0_2_277
*947 FILLER_0_2_289
*948 FILLER_0_2_29
*949 FILLER_0_2_3
*950 FILLER_0_2_301
*951 FILLER_0_2_307
*952 FILLER_0_2_309
*953 FILLER_0_2_321
*954 FILLER_0_2_333
*955 FILLER_0_2_41
*956 FILLER_0_2_53
*957 FILLER_0_2_65
*958 FILLER_0_2_77
*959 FILLER_0_2_83
*960 FILLER_0_2_85
*961 FILLER_0_2_97
*962 FILLER_0_30_109
*963 FILLER_0_30_121
*964 FILLER_0_30_133
*965 FILLER_0_30_139
*966 FILLER_0_30_141
*967 FILLER_0_30_15
*968 FILLER_0_30_153
*969 FILLER_0_30_165
*970 FILLER_0_30_177
*971 FILLER_0_30_189
*972 FILLER_0_30_195
*973 FILLER_0_30_197
*974 FILLER_0_30_209
*975 FILLER_0_30_221
*976 FILLER_0_30_233
*977 FILLER_0_30_245
*978 FILLER_0_30_251
*979 FILLER_0_30_253
*980 FILLER_0_30_265
*981 FILLER_0_30_27
*982 FILLER_0_30_277
*983 FILLER_0_30_289
*984 FILLER_0_30_29
*985 FILLER_0_30_3
*986 FILLER_0_30_301
*987 FILLER_0_30_307
*988 FILLER_0_30_309
*989 FILLER_0_30_321
*990 FILLER_0_30_333
*991 FILLER_0_30_41
*992 FILLER_0_30_53
*993 FILLER_0_30_65
*994 FILLER_0_30_77
*995 FILLER_0_30_83
*996 FILLER_0_30_85
*997 FILLER_0_30_97
*998 FILLER_0_31_105
*999 FILLER_0_31_113
*1000 FILLER_0_31_119
*1001 FILLER_0_31_140
*1002 FILLER_0_31_15
*1003 FILLER_0_31_166
*1004 FILLER_0_31_177
*1005 FILLER_0_31_198
*1006 FILLER_0_31_210
*1007 FILLER_0_31_222
*1008 FILLER_0_31_225
*1009 FILLER_0_31_237
*1010 FILLER_0_31_249
*1011 FILLER_0_31_261
*1012 FILLER_0_31_27
*1013 FILLER_0_31_273
*1014 FILLER_0_31_279
*1015 FILLER_0_31_281
*1016 FILLER_0_31_293
*1017 FILLER_0_31_3
*1018 FILLER_0_31_305
*1019 FILLER_0_31_317
*1020 FILLER_0_31_329
*1021 FILLER_0_31_39
*1022 FILLER_0_31_51
*1023 FILLER_0_31_55
*1024 FILLER_0_31_57
*1025 FILLER_0_31_69
*1026 FILLER_0_31_81
*1027 FILLER_0_31_93
*1028 FILLER_0_32_15
*1029 FILLER_0_32_170
*1030 FILLER_0_32_217
*1031 FILLER_0_32_229
*1032 FILLER_0_32_241
*1033 FILLER_0_32_249
*1034 FILLER_0_32_253
*1035 FILLER_0_32_265
*1036 FILLER_0_32_27
*1037 FILLER_0_32_277
*1038 FILLER_0_32_289
*1039 FILLER_0_32_29
*1040 FILLER_0_32_3
*1041 FILLER_0_32_301
*1042 FILLER_0_32_307
*1043 FILLER_0_32_309
*1044 FILLER_0_32_321
*1045 FILLER_0_32_333
*1046 FILLER_0_32_41
*1047 FILLER_0_32_53
*1048 FILLER_0_32_65
*1049 FILLER_0_32_77
*1050 FILLER_0_32_83
*1051 FILLER_0_32_85
*1052 FILLER_0_32_97
*1053 FILLER_0_33_108
*1054 FILLER_0_33_133
*1055 FILLER_0_33_15
*1056 FILLER_0_33_153
*1057 FILLER_0_33_160
*1058 FILLER_0_33_166
*1059 FILLER_0_33_174
*1060 FILLER_0_33_208
*1061 FILLER_0_33_218
*1062 FILLER_0_33_223
*1063 FILLER_0_33_234
*1064 FILLER_0_33_246
*1065 FILLER_0_33_258
*1066 FILLER_0_33_27
*1067 FILLER_0_33_270
*1068 FILLER_0_33_278
*1069 FILLER_0_33_281
*1070 FILLER_0_33_293
*1071 FILLER_0_33_3
*1072 FILLER_0_33_305
*1073 FILLER_0_33_317
*1074 FILLER_0_33_329
*1075 FILLER_0_33_39
*1076 FILLER_0_33_51
*1077 FILLER_0_33_55
*1078 FILLER_0_33_57
*1079 FILLER_0_33_69
*1080 FILLER_0_34_111
*1081 FILLER_0_34_130
*1082 FILLER_0_34_136
*1083 FILLER_0_34_15
*1084 FILLER_0_34_200
*1085 FILLER_0_34_212
*1086 FILLER_0_34_216
*1087 FILLER_0_34_237
*1088 FILLER_0_34_249
*1089 FILLER_0_34_253
*1090 FILLER_0_34_265
*1091 FILLER_0_34_27
*1092 FILLER_0_34_277
*1093 FILLER_0_34_289
*1094 FILLER_0_34_29
*1095 FILLER_0_34_3
*1096 FILLER_0_34_301
*1097 FILLER_0_34_307
*1098 FILLER_0_34_309
*1099 FILLER_0_34_321
*1100 FILLER_0_34_333
*1101 FILLER_0_34_41
*1102 FILLER_0_34_53
*1103 FILLER_0_34_65
*1104 FILLER_0_34_77
*1105 FILLER_0_34_83
*1106 FILLER_0_35_110
*1107 FILLER_0_35_122
*1108 FILLER_0_35_128
*1109 FILLER_0_35_15
*1110 FILLER_0_35_155
*1111 FILLER_0_35_195
*1112 FILLER_0_35_216
*1113 FILLER_0_35_220
*1114 FILLER_0_35_242
*1115 FILLER_0_35_254
*1116 FILLER_0_35_266
*1117 FILLER_0_35_27
*1118 FILLER_0_35_278
*1119 FILLER_0_35_281
*1120 FILLER_0_35_293
*1121 FILLER_0_35_3
*1122 FILLER_0_35_305
*1123 FILLER_0_35_317
*1124 FILLER_0_35_329
*1125 FILLER_0_35_39
*1126 FILLER_0_35_51
*1127 FILLER_0_35_55
*1128 FILLER_0_35_57
*1129 FILLER_0_35_69
*1130 FILLER_0_36_116
*1131 FILLER_0_36_138
*1132 FILLER_0_36_15
*1133 FILLER_0_36_181
*1134 FILLER_0_36_191
*1135 FILLER_0_36_197
*1136 FILLER_0_36_218
*1137 FILLER_0_36_245
*1138 FILLER_0_36_251
*1139 FILLER_0_36_253
*1140 FILLER_0_36_265
*1141 FILLER_0_36_27
*1142 FILLER_0_36_277
*1143 FILLER_0_36_289
*1144 FILLER_0_36_29
*1145 FILLER_0_36_3
*1146 FILLER_0_36_301
*1147 FILLER_0_36_307
*1148 FILLER_0_36_309
*1149 FILLER_0_36_321
*1150 FILLER_0_36_333
*1151 FILLER_0_36_41
*1152 FILLER_0_36_53
*1153 FILLER_0_36_65
*1154 FILLER_0_36_77
*1155 FILLER_0_36_83
*1156 FILLER_0_37_128
*1157 FILLER_0_37_15
*1158 FILLER_0_37_169
*1159 FILLER_0_37_182
*1160 FILLER_0_37_193
*1161 FILLER_0_37_199
*1162 FILLER_0_37_223
*1163 FILLER_0_37_225
*1164 FILLER_0_37_233
*1165 FILLER_0_37_258
*1166 FILLER_0_37_27
*1167 FILLER_0_37_270
*1168 FILLER_0_37_278
*1169 FILLER_0_37_281
*1170 FILLER_0_37_293
*1171 FILLER_0_37_3
*1172 FILLER_0_37_305
*1173 FILLER_0_37_317
*1174 FILLER_0_37_329
*1175 FILLER_0_37_39
*1176 FILLER_0_37_51
*1177 FILLER_0_37_55
*1178 FILLER_0_37_57
*1179 FILLER_0_37_75
*1180 FILLER_0_37_86
*1181 FILLER_0_38_10
*1182 FILLER_0_38_113
*1183 FILLER_0_38_126
*1184 FILLER_0_38_134
*1185 FILLER_0_38_14
*1186 FILLER_0_38_149
*1187 FILLER_0_38_158
*1188 FILLER_0_38_167
*1189 FILLER_0_38_179
*1190 FILLER_0_38_18
*1191 FILLER_0_38_191
*1192 FILLER_0_38_195
*1193 FILLER_0_38_197
*1194 FILLER_0_38_203
*1195 FILLER_0_38_213
*1196 FILLER_0_38_22
*1197 FILLER_0_38_221
*1198 FILLER_0_38_225
*1199 FILLER_0_38_230
*1200 FILLER_0_38_246
*1201 FILLER_0_38_256
*1202 FILLER_0_38_268
*1203 FILLER_0_38_281
*1204 FILLER_0_38_293
*1205 FILLER_0_38_305
*1206 FILLER_0_38_309
*1207 FILLER_0_38_32
*1208 FILLER_0_38_321
*1209 FILLER_0_38_326
*1210 FILLER_0_38_334
*1211 FILLER_0_38_38
*1212 FILLER_0_38_42
*1213 FILLER_0_38_46
*1214 FILLER_0_38_50
*1215 FILLER_0_38_54
*1216 FILLER_0_38_57
*1217 FILLER_0_38_6
*1218 FILLER_0_38_62
*1219 FILLER_0_38_74
*1220 FILLER_0_38_82
*1221 FILLER_0_38_85
*1222 FILLER_0_38_97
*1223 FILLER_0_3_105
*1224 FILLER_0_3_111
*1225 FILLER_0_3_113
*1226 FILLER_0_3_125
*1227 FILLER_0_3_137
*1228 FILLER_0_3_149
*1229 FILLER_0_3_15
*1230 FILLER_0_3_161
*1231 FILLER_0_3_167
*1232 FILLER_0_3_169
*1233 FILLER_0_3_181
*1234 FILLER_0_3_193
*1235 FILLER_0_3_205
*1236 FILLER_0_3_217
*1237 FILLER_0_3_223
*1238 FILLER_0_3_225
*1239 FILLER_0_3_237
*1240 FILLER_0_3_249
*1241 FILLER_0_3_261
*1242 FILLER_0_3_27
*1243 FILLER_0_3_273
*1244 FILLER_0_3_279
*1245 FILLER_0_3_281
*1246 FILLER_0_3_293
*1247 FILLER_0_3_3
*1248 FILLER_0_3_305
*1249 FILLER_0_3_317
*1250 FILLER_0_3_329
*1251 FILLER_0_3_39
*1252 FILLER_0_3_51
*1253 FILLER_0_3_55
*1254 FILLER_0_3_57
*1255 FILLER_0_3_69
*1256 FILLER_0_3_81
*1257 FILLER_0_3_93
*1258 FILLER_0_4_109
*1259 FILLER_0_4_121
*1260 FILLER_0_4_133
*1261 FILLER_0_4_139
*1262 FILLER_0_4_141
*1263 FILLER_0_4_15
*1264 FILLER_0_4_153
*1265 FILLER_0_4_165
*1266 FILLER_0_4_177
*1267 FILLER_0_4_189
*1268 FILLER_0_4_195
*1269 FILLER_0_4_197
*1270 FILLER_0_4_209
*1271 FILLER_0_4_221
*1272 FILLER_0_4_233
*1273 FILLER_0_4_245
*1274 FILLER_0_4_251
*1275 FILLER_0_4_253
*1276 FILLER_0_4_265
*1277 FILLER_0_4_27
*1278 FILLER_0_4_277
*1279 FILLER_0_4_289
*1280 FILLER_0_4_29
*1281 FILLER_0_4_3
*1282 FILLER_0_4_301
*1283 FILLER_0_4_307
*1284 FILLER_0_4_309
*1285 FILLER_0_4_321
*1286 FILLER_0_4_333
*1287 FILLER_0_4_41
*1288 FILLER_0_4_53
*1289 FILLER_0_4_65
*1290 FILLER_0_4_77
*1291 FILLER_0_4_83
*1292 FILLER_0_4_85
*1293 FILLER_0_4_97
*1294 FILLER_0_5_105
*1295 FILLER_0_5_111
*1296 FILLER_0_5_113
*1297 FILLER_0_5_125
*1298 FILLER_0_5_137
*1299 FILLER_0_5_149
*1300 FILLER_0_5_15
*1301 FILLER_0_5_161
*1302 FILLER_0_5_167
*1303 FILLER_0_5_169
*1304 FILLER_0_5_181
*1305 FILLER_0_5_193
*1306 FILLER_0_5_205
*1307 FILLER_0_5_217
*1308 FILLER_0_5_223
*1309 FILLER_0_5_225
*1310 FILLER_0_5_237
*1311 FILLER_0_5_249
*1312 FILLER_0_5_261
*1313 FILLER_0_5_27
*1314 FILLER_0_5_273
*1315 FILLER_0_5_279
*1316 FILLER_0_5_281
*1317 FILLER_0_5_293
*1318 FILLER_0_5_3
*1319 FILLER_0_5_305
*1320 FILLER_0_5_317
*1321 FILLER_0_5_329
*1322 FILLER_0_5_39
*1323 FILLER_0_5_51
*1324 FILLER_0_5_55
*1325 FILLER_0_5_57
*1326 FILLER_0_5_69
*1327 FILLER_0_5_81
*1328 FILLER_0_5_93
*1329 FILLER_0_6_109
*1330 FILLER_0_6_121
*1331 FILLER_0_6_133
*1332 FILLER_0_6_139
*1333 FILLER_0_6_141
*1334 FILLER_0_6_15
*1335 FILLER_0_6_153
*1336 FILLER_0_6_165
*1337 FILLER_0_6_177
*1338 FILLER_0_6_189
*1339 FILLER_0_6_195
*1340 FILLER_0_6_197
*1341 FILLER_0_6_209
*1342 FILLER_0_6_221
*1343 FILLER_0_6_233
*1344 FILLER_0_6_245
*1345 FILLER_0_6_251
*1346 FILLER_0_6_253
*1347 FILLER_0_6_265
*1348 FILLER_0_6_27
*1349 FILLER_0_6_277
*1350 FILLER_0_6_289
*1351 FILLER_0_6_29
*1352 FILLER_0_6_3
*1353 FILLER_0_6_301
*1354 FILLER_0_6_307
*1355 FILLER_0_6_309
*1356 FILLER_0_6_321
*1357 FILLER_0_6_333
*1358 FILLER_0_6_41
*1359 FILLER_0_6_53
*1360 FILLER_0_6_65
*1361 FILLER_0_6_77
*1362 FILLER_0_6_83
*1363 FILLER_0_6_85
*1364 FILLER_0_6_97
*1365 FILLER_0_7_105
*1366 FILLER_0_7_111
*1367 FILLER_0_7_113
*1368 FILLER_0_7_125
*1369 FILLER_0_7_137
*1370 FILLER_0_7_149
*1371 FILLER_0_7_15
*1372 FILLER_0_7_161
*1373 FILLER_0_7_167
*1374 FILLER_0_7_169
*1375 FILLER_0_7_181
*1376 FILLER_0_7_193
*1377 FILLER_0_7_205
*1378 FILLER_0_7_217
*1379 FILLER_0_7_223
*1380 FILLER_0_7_225
*1381 FILLER_0_7_237
*1382 FILLER_0_7_249
*1383 FILLER_0_7_261
*1384 FILLER_0_7_27
*1385 FILLER_0_7_273
*1386 FILLER_0_7_279
*1387 FILLER_0_7_281
*1388 FILLER_0_7_293
*1389 FILLER_0_7_3
*1390 FILLER_0_7_305
*1391 FILLER_0_7_317
*1392 FILLER_0_7_329
*1393 FILLER_0_7_39
*1394 FILLER_0_7_51
*1395 FILLER_0_7_55
*1396 FILLER_0_7_57
*1397 FILLER_0_7_69
*1398 FILLER_0_7_81
*1399 FILLER_0_7_93
*1400 FILLER_0_8_109
*1401 FILLER_0_8_121
*1402 FILLER_0_8_133
*1403 FILLER_0_8_139
*1404 FILLER_0_8_141
*1405 FILLER_0_8_15
*1406 FILLER_0_8_153
*1407 FILLER_0_8_165
*1408 FILLER_0_8_177
*1409 FILLER_0_8_189
*1410 FILLER_0_8_195
*1411 FILLER_0_8_197
*1412 FILLER_0_8_209
*1413 FILLER_0_8_221
*1414 FILLER_0_8_233
*1415 FILLER_0_8_245
*1416 FILLER_0_8_251
*1417 FILLER_0_8_253
*1418 FILLER_0_8_265
*1419 FILLER_0_8_27
*1420 FILLER_0_8_277
*1421 FILLER_0_8_289
*1422 FILLER_0_8_29
*1423 FILLER_0_8_3
*1424 FILLER_0_8_301
*1425 FILLER_0_8_307
*1426 FILLER_0_8_309
*1427 FILLER_0_8_321
*1428 FILLER_0_8_333
*1429 FILLER_0_8_41
*1430 FILLER_0_8_53
*1431 FILLER_0_8_65
*1432 FILLER_0_8_77
*1433 FILLER_0_8_83
*1434 FILLER_0_8_85
*1435 FILLER_0_8_97
*1436 FILLER_0_9_105
*1437 FILLER_0_9_111
*1438 FILLER_0_9_113
*1439 FILLER_0_9_125
*1440 FILLER_0_9_137
*1441 FILLER_0_9_149
*1442 FILLER_0_9_15
*1443 FILLER_0_9_161
*1444 FILLER_0_9_167
*1445 FILLER_0_9_169
*1446 FILLER_0_9_181
*1447 FILLER_0_9_193
*1448 FILLER_0_9_205
*1449 FILLER_0_9_217
*1450 FILLER_0_9_223
*1451 FILLER_0_9_225
*1452 FILLER_0_9_237
*1453 FILLER_0_9_249
*1454 FILLER_0_9_261
*1455 FILLER_0_9_27
*1456 FILLER_0_9_273
*1457 FILLER_0_9_279
*1458 FILLER_0_9_281
*1459 FILLER_0_9_293
*1460 FILLER_0_9_3
*1461 FILLER_0_9_305
*1462 FILLER_0_9_317
*1463 FILLER_0_9_329
*1464 FILLER_0_9_39
*1465 FILLER_0_9_51
*1466 FILLER_0_9_55
*1467 FILLER_0_9_57
*1468 FILLER_0_9_69
*1469 FILLER_0_9_81
*1470 FILLER_0_9_93
*1471 PHY_EDGE_ROW_0_Left_39
*1472 PHY_EDGE_ROW_0_Right_0
*1473 PHY_EDGE_ROW_10_Left_49
*1474 PHY_EDGE_ROW_10_Right_10
*1475 PHY_EDGE_ROW_11_Left_50
*1476 PHY_EDGE_ROW_11_Right_11
*1477 PHY_EDGE_ROW_12_Left_51
*1478 PHY_EDGE_ROW_12_Right_12
*1479 PHY_EDGE_ROW_13_Left_52
*1480 PHY_EDGE_ROW_13_Right_13
*1481 PHY_EDGE_ROW_14_Left_53
*1482 PHY_EDGE_ROW_14_Right_14
*1483 PHY_EDGE_ROW_15_Left_54
*1484 PHY_EDGE_ROW_15_Right_15