*SPEF "ieee 1481-1999"
*DESIGN "tt_um_wokwi_394618582085551105"
*DATE "13:35:47 Saturday April 13, 2024"
*VENDOR "The OpenROAD Project"
*PROGRAM "OpenROAD"
*VERSION "0889970d1790a2617e69f253221b8bd7626e51dc"
*DESIGN_FLOW "NAME_SCOPE LOCAL" "PIN_CAP NONE"
*DIVIDER /
*DELIMITER :
*BUS_DELIMITER []
*T_UNIT 1 NS
*C_UNIT 1 PF
*R_UNIT 1 OHM
*L_UNIT 1 HENRY

*NAME_MAP
*3 clk
*4 ena
*5 rst_n
*6 ui_in[0]
*7 ui_in[1]
*8 ui_in[2]
*9 ui_in[3]
*10 ui_in[4]
*11 ui_in[5]
*12 ui_in[6]
*13 ui_in[7]
*14 uio_in[0]
*15 uio_in[1]
*16 uio_in[2]
*17 uio_in[3]
*18 uio_in[4]
*19 uio_in[5]
*20 uio_in[6]
*21 uio_in[7]
*22 net8
*23 net9
*24 net10
*25 net11
*26 net16
*27 net17
*28 net18
*29 net19
*30 net12
*31 net13
*32 net14
*33 net15
*34 uio_out[4]
*35 uio_out[5]
*36 uio_out[6]
*37 uio_out[7]
*38 uo_out[0]
*39 uo_out[1]
*40 uo_out[2]
*41 uo_out[3]
*42 uo_out[4]
*43 uo_out[5]
*44 uo_out[6]
*45 uo_out[7]
*46 _000_
*47 _001_
*48 _002_
*49 _003_
*50 _004_
*51 _005_
*52 _006_
*53 _007_
*54 _008_
*55 _009_
*56 _010_
*57 _011_
*58 _012_
*59 _013_
*60 _014_
*61 _015_
*62 _016_
*63 _017_
*64 _018_
*65 _019_
*66 _020_
*67 _021_
*68 _022_
*69 _023_
*70 _024_
*71 _025_
*72 _026_
*73 _027_
*74 _028_
*75 _029_
*76 _030_
*77 _031_
*78 _032_
*79 _033_
*80 _034_
*81 _035_
*82 _036_
*83 _037_
*84 _038_
*85 _039_
*86 _040_
*87 _041_
*88 _042_
*89 _043_
*90 _044_
*91 _045_
*92 _046_
*93 _047_
*94 clknet_0_clk
*95 clknet_1_0__leaf_clk
*96 clknet_1_1__leaf_clk
*97 flop1\.q
*98 flop10\.q
*99 flop11\.q
*100 flop12\.q
*101 flop13\.q
*102 flop14\.q
*103 flop15\.q
*104 flop16\.q
*105 flop2\.q
*106 flop21\.d
*107 flop21\.q
*108 flop22\.d
*109 flop23\.d
*110 flop3\.q
*111 flop4\.q
*112 flop5\.q
*113 flop6\.q
*114 flop7\.q
*115 flop8\.q
*116 flop9\.q
*117 net1
*118 net2
*119 net20
*120 net21
*121 net22
*122 net23
*123 net24
*124 net25
*125 net26
*126 net27
*127 net28
*128 net29
*129 net3
*130 net30
*131 net31
*132 net4
*133 net5
*134 net6
*135 net7
*136 or1\.out
*137 or2\.out
*138 or3\.out
*139 or4\.out
*140 or5\.out
*141 or6\.out
*142 or7\.out
*143 FILLER_0_0_109
*144 FILLER_0_0_113
*145 FILLER_0_0_125
*146 FILLER_0_0_137
*147 FILLER_0_0_141
*148 FILLER_0_0_15
*149 FILLER_0_0_153
*150 FILLER_0_0_165
*151 FILLER_0_0_169
*152 FILLER_0_0_181
*153 FILLER_0_0_193
*154 FILLER_0_0_197
*155 FILLER_0_0_209
*156 FILLER_0_0_221
*157 FILLER_0_0_225
*158 FILLER_0_0_237
*159 FILLER_0_0_249
*160 FILLER_0_0_253
*161 FILLER_0_0_265
*162 FILLER_0_0_27
*163 FILLER_0_0_277
*164 FILLER_0_0_281
*165 FILLER_0_0_29
*166 FILLER_0_0_293
*167 FILLER_0_0_3
*168 FILLER_0_0_305
*169 FILLER_0_0_309
*170 FILLER_0_0_321
*171 FILLER_0_0_333
*172 FILLER_0_0_41
*173 FILLER_0_0_53
*174 FILLER_0_0_57
*175 FILLER_0_0_69
*176 FILLER_0_0_81
*177 FILLER_0_0_85
*178 FILLER_0_0_97
*179 FILLER_0_10_109
*180 FILLER_0_10_121
*181 FILLER_0_10_133
*182 FILLER_0_10_139
*183 FILLER_0_10_141
*184 FILLER_0_10_15
*185 FILLER_0_10_153
*186 FILLER_0_10_165
*187 FILLER_0_10_177
*188 FILLER_0_10_189
*189 FILLER_0_10_195
*190 FILLER_0_10_197
*191 FILLER_0_10_209
*192 FILLER_0_10_221
*193 FILLER_0_10_233
*194 FILLER_0_10_245
*195 FILLER_0_10_251
*196 FILLER_0_10_253
*197 FILLER_0_10_265
*198 FILLER_0_10_27
*199 FILLER_0_10_277
*200 FILLER_0_10_289
*201 FILLER_0_10_29
*202 FILLER_0_10_3
*203 FILLER_0_10_301
*204 FILLER_0_10_307
*205 FILLER_0_10_309
*206 FILLER_0_10_321
*207 FILLER_0_10_333
*208 FILLER_0_10_41
*209 FILLER_0_10_53
*210 FILLER_0_10_65
*211 FILLER_0_10_77
*212 FILLER_0_10_83
*213 FILLER_0_10_85
*214 FILLER_0_10_97
*215 FILLER_0_11_105
*216 FILLER_0_11_111
*217 FILLER_0_11_113
*218 FILLER_0_11_125
*219 FILLER_0_11_137
*220 FILLER_0_11_149
*221 FILLER_0_11_15
*222 FILLER_0_11_161
*223 FILLER_0_11_167
*224 FILLER_0_11_169
*225 FILLER_0_11_181
*226 FILLER_0_11_193
*227 FILLER_0_11_205
*228 FILLER_0_11_217
*229 FILLER_0_11_223
*230 FILLER_0_11_225
*231 FILLER_0_11_237
*232 FILLER_0_11_249
*233 FILLER_0_11_261
*234 FILLER_0_11_27
*235 FILLER_0_11_273
*236 FILLER_0_11_279
*237 FILLER_0_11_281
*238 FILLER_0_11_293
*239 FILLER_0_11_3
*240 FILLER_0_11_305
*241 FILLER_0_11_317
*242 FILLER_0_11_329
*243 FILLER_0_11_39
*244 FILLER_0_11_51
*245 FILLER_0_11_55
*246 FILLER_0_11_57
*247 FILLER_0_11_69
*248 FILLER_0_11_81
*249 FILLER_0_11_93
*250 FILLER_0_12_109
*251 FILLER_0_12_121
*252 FILLER_0_12_133
*253 FILLER_0_12_139
*254 FILLER_0_12_141
*255 FILLER_0_12_15
*256 FILLER_0_12_153
*257 FILLER_0_12_165
*258 FILLER_0_12_177
*259 FILLER_0_12_189
*260 FILLER_0_12_195
*261 FILLER_0_12_197
*262 FILLER_0_12_209
*263 FILLER_0_12_221
*264 FILLER_0_12_233
*265 FILLER_0_12_245
*266 FILLER_0_12_251
*267 FILLER_0_12_253
*268 FILLER_0_12_265
*269 FILLER_0_12_27
*270 FILLER_0_12_277
*271 FILLER_0_12_289
*272 FILLER_0_12_29
*273 FILLER_0_12_3
*274 FILLER_0_12_301
*275 FILLER_0_12_307
*276 FILLER_0_12_309
*277 FILLER_0_12_321
*278 FILLER_0_12_333
*279 FILLER_0_12_41
*280 FILLER_0_12_53
*281 FILLER_0_12_65
*282 FILLER_0_12_77
*283 FILLER_0_12_83
*284 FILLER_0_12_85
*285 FILLER_0_12_97
*286 FILLER_0_13_105
*287 FILLER_0_13_111
*288 FILLER_0_13_113
*289 FILLER_0_13_125
*290 FILLER_0_13_137
*291 FILLER_0_13_149
*292 FILLER_0_13_15
*293 FILLER_0_13_161
*294 FILLER_0_13_167
*295 FILLER_0_13_169
*296 FILLER_0_13_181
*297 FILLER_0_13_193
*298 FILLER_0_13_205
*299 FILLER_0_13_217
*300 FILLER_0_13_223
*301 FILLER_0_13_225
*302 FILLER_0_13_237
*303 FILLER_0_13_249
*304 FILLER_0_13_261
*305 FILLER_0_13_27
*306 FILLER_0_13_273
*307 FILLER_0_13_279
*308 FILLER_0_13_281
*309 FILLER_0_13_293
*310 FILLER_0_13_3
*311 FILLER_0_13_305
*312 FILLER_0_13_317
*313 FILLER_0_13_329
*314 FILLER_0_13_39
*315 FILLER_0_13_51
*316 FILLER_0_13_55
*317 FILLER_0_13_57
*318 FILLER_0_13_69
*319 FILLER_0_13_81
*320 FILLER_0_13_93
*321 FILLER_0_14_109
*322 FILLER_0_14_121
*323 FILLER_0_14_133
*324 FILLER_0_14_139
*325 FILLER_0_14_141
*326 FILLER_0_14_15
*327 FILLER_0_14_153
*328 FILLER_0_14_165
*329 FILLER_0_14_177
*330 FILLER_0_14_189
*331 FILLER_0_14_195
*332 FILLER_0_14_197
*333 FILLER_0_14_209
*334 FILLER_0_14_221
*335 FILLER_0_14_233
*336 FILLER_0_14_245
*337 FILLER_0_14_251
*338 FILLER_0_14_253
*339 FILLER_0_14_265
*340 FILLER_0_14_27
*341 FILLER_0_14_277
*342 FILLER_0_14_289
*343 FILLER_0_14_29
*344 FILLER_0_14_3
*345 FILLER_0_14_301
*346 FILLER_0_14_307
*347 FILLER_0_14_309
*348 FILLER_0_14_321
*349 FILLER_0_14_333
*350 FILLER_0_14_41
*351 FILLER_0_14_53
*352 FILLER_0_14_65
*353 FILLER_0_14_77
*354 FILLER_0_14_83
*355 FILLER_0_14_85
*356 FILLER_0_14_97
*357 FILLER_0_15_105
*358 FILLER_0_15_111
*359 FILLER_0_15_113
*360 FILLER_0_15_125
*361 FILLER_0_15_137
*362 FILLER_0_15_149
*363 FILLER_0_15_15
*364 FILLER_0_15_161
*365 FILLER_0_15_167
*366 FILLER_0_15_169
*367 FILLER_0_15_181
*368 FILLER_0_15_193
*369 FILLER_0_15_205
*370 FILLER_0_15_217
*371 FILLER_0_15_223
*372 FILLER_0_15_225
*373 FILLER_0_15_237
*374 FILLER_0_15_249
*375 FILLER_0_15_261
*376 FILLER_0_15_27
*377 FILLER_0_15_273
*378 FILLER_0_15_279
*379 FILLER_0_15_281
*380 FILLER_0_15_293
*381 FILLER_0_15_3
*382 FILLER_0_15_305
*383 FILLER_0_15_317
*384 FILLER_0_15_329
*385 FILLER_0_15_39
*386 FILLER_0_15_51
*387 FILLER_0_15_55
*388 FILLER_0_15_57
*389 FILLER_0_15_69
*390 FILLER_0_15_81
*391 FILLER_0_15_93
*392 FILLER_0_16_109
*393 FILLER_0_16_121
*394 FILLER_0_16_133
*395 FILLER_0_16_139
*396 FILLER_0_16_141
*397 FILLER_0_16_15
*398 FILLER_0_16_153
*399 FILLER_0_16_165
*400 FILLER_0_16_177
*401 FILLER_0_16_189
*402 FILLER_0_16_195
*403 FILLER_0_16_197
*404 FILLER_0_16_209
*405 FILLER_0_16_221
*406 FILLER_0_16_233
*407 FILLER_0_16_245
*408 FILLER_0_16_251
*409 FILLER_0_16_253
*410 FILLER_0_16_265
*411 FILLER_0_16_27
*412 FILLER_0_16_277
*413 FILLER_0_16_289
*414 FILLER_0_16_29
*415 FILLER_0_16_3
*416 FILLER_0_16_301
*417 FILLER_0_16_307
*418 FILLER_0_16_309
*419 FILLER_0_16_321
*420 FILLER_0_16_333
*421 FILLER_0_16_41
*422 FILLER_0_16_53
*423 FILLER_0_16_65
*424 FILLER_0_16_77
*425 FILLER_0_16_83
*426 FILLER_0_16_85
*427 FILLER_0_16_97
*428 FILLER_0_17_105
*429 FILLER_0_17_111
*430 FILLER_0_17_113
*431 FILLER_0_17_125
*432 FILLER_0_17_137
*433 FILLER_0_17_149
*434 FILLER_0_17_15
*435 FILLER_0_17_161
*436 FILLER_0_17_167
*437 FILLER_0_17_169
*438 FILLER_0_17_181
*439 FILLER_0_17_193
*440 FILLER_0_17_205
*441 FILLER_0_17_217
*442 FILLER_0_17_223
*443 FILLER_0_17_225
*444 FILLER_0_17_237
*445 FILLER_0_17_249
*446 FILLER_0_17_261
*447 FILLER_0_17_27
*448 FILLER_0_17_273
*449 FILLER_0_17_279
*450 FILLER_0_17_281
*451 FILLER_0_17_293
*452 FILLER_0_17_3
*453 FILLER_0_17_305
*454 FILLER_0_17_317
*455 FILLER_0_17_329
*456 FILLER_0_17_39
*457 FILLER_0_17_51
*458 FILLER_0_17_55
*459 FILLER_0_17_57
*460 FILLER_0_17_69
*461 FILLER_0_17_81
*462 FILLER_0_17_93
*463 FILLER_0_18_109
*464 FILLER_0_18_121
*465 FILLER_0_18_133
*466 FILLER_0_18_139
*467 FILLER_0_18_141
*468 FILLER_0_18_15
*469 FILLER_0_18_153
*470 FILLER_0_18_165
*471 FILLER_0_18_177
*472 FILLER_0_18_189
*473 FILLER_0_18_195
*474 FILLER_0_18_197
*475 FILLER_0_18_209
*476 FILLER_0_18_221
*477 FILLER_0_18_233
*478 FILLER_0_18_245
*479 FILLER_0_18_251
*480 FILLER_0_18_253
*481 FILLER_0_18_265
*482 FILLER_0_18_27
*483 FILLER_0_18_277
*484 FILLER_0_18_289
*485 FILLER_0_18_29
*486 FILLER_0_18_3
*487 FILLER_0_18_301
*488 FILLER_0_18_307
*489 FILLER_0_18_309
*490 FILLER_0_18_321
*491 FILLER_0_18_333
*492 FILLER_0_18_41
*493 FILLER_0_18_53
*494 FILLER_0_18_65
*495 FILLER_0_18_77
*496 FILLER_0_18_83
*497 FILLER_0_18_85
*498 FILLER_0_18_97
*499 FILLER_0_19_105
*500 FILLER_0_19_111
*501 FILLER_0_19_113
*502 FILLER_0_19_125
*503 FILLER_0_19_137
*504 FILLER_0_19_149
*505 FILLER_0_19_15
*506 FILLER_0_19_161
*507 FILLER_0_19_167
*508 FILLER_0_19_169
*509 FILLER_0_19_181
*510 FILLER_0_19_193
*511 FILLER_0_19_205
*512 FILLER_0_19_217
*513 FILLER_0_19_223
*514 FILLER_0_19_225
*515 FILLER_0_19_237
*516 FILLER_0_19_249
*517 FILLER_0_19_261
*518 FILLER_0_19_27
*519 FILLER_0_19_273
*520 FILLER_0_19_279
*521 FILLER_0_19_281
*522 FILLER_0_19_293
*523 FILLER_0_19_3
*524 FILLER_0_19_305
*525 FILLER_0_19_317
*526 FILLER_0_19_329
*527 FILLER_0_19_39
*528 FILLER_0_19_51
*529 FILLER_0_19_55
*530 FILLER_0_19_57
*531 FILLER_0_19_69
*532 FILLER_0_19_81
*533 FILLER_0_19_93
*534 FILLER_0_1_105
*535 FILLER_0_1_111
*536 FILLER_0_1_113
*537 FILLER_0_1_125
*538 FILLER_0_1_137
*539 FILLER_0_1_149
*540 FILLER_0_1_15
*541 FILLER_0_1_161
*542 FILLER_0_1_167
*543 FILLER_0_1_169
*544 FILLER_0_1_181
*545 FILLER_0_1_193
*546 FILLER_0_1_205
*547 FILLER_0_1_217
*548 FILLER_0_1_223
*549 FILLER_0_1_225
*550 FILLER_0_1_237
*551 FILLER_0_1_249
*552 FILLER_0_1_261
*553 FILLER_0_1_27
*554 FILLER_0_1_273
*555 FILLER_0_1_279
*556 FILLER_0_1_281
*557 FILLER_0_1_293
*558 FILLER_0_1_3
*559 FILLER_0_1_305
*560 FILLER_0_1_317
*561 FILLER_0_1_329
*562 FILLER_0_1_39
*563 FILLER_0_1_51
*564 FILLER_0_1_55
*565 FILLER_0_1_57
*566 FILLER_0_1_69
*567 FILLER_0_1_81
*568 FILLER_0_1_93
*569 FILLER_0_20_109
*570 FILLER_0_20_121
*571 FILLER_0_20_133
*572 FILLER_0_20_139
*573 FILLER_0_20_141
*574 FILLER_0_20_15
*575 FILLER_0_20_153
*576 FILLER_0_20_165
*577 FILLER_0_20_177
*578 FILLER_0_20_189
*579 FILLER_0_20_195
*580 FILLER_0_20_197
*581 FILLER_0_20_209
*582 FILLER_0_20_221
*583 FILLER_0_20_233
*584 FILLER_0_20_245
*585 FILLER_0_20_251
*586 FILLER_0_20_253
*587 FILLER_0_20_265
*588 FILLER_0_20_27
*589 FILLER_0_20_277
*590 FILLER_0_20_289
*591 FILLER_0_20_29
*592 FILLER_0_20_3
*593 FILLER_0_20_301
*594 FILLER_0_20_307
*595 FILLER_0_20_309
*596 FILLER_0_20_321
*597 FILLER_0_20_333
*598 FILLER_0_20_41
*599 FILLER_0_20_53
*600 FILLER_0_20_65
*601 FILLER_0_20_77
*602 FILLER_0_20_83
*603 FILLER_0_20_85
*604 FILLER_0_20_97
*605 FILLER_0_21_105
*606 FILLER_0_21_111
*607 FILLER_0_21_113
*608 FILLER_0_21_125
*609 FILLER_0_21_137
*610 FILLER_0_21_149
*611 FILLER_0_21_15
*612 FILLER_0_21_161
*613 FILLER_0_21_167
*614 FILLER_0_21_169
*615 FILLER_0_21_181
*616 FILLER_0_21_193
*617 FILLER_0_21_205
*618 FILLER_0_21_217
*619 FILLER_0_21_223
*620 FILLER_0_21_225
*621 FILLER_0_21_237
*622 FILLER_0_21_249
*623 FILLER_0_21_261
*624 FILLER_0_21_27
*625 FILLER_0_21_273
*626 FILLER_0_21_279
*627 FILLER_0_21_281
*628 FILLER_0_21_293
*629 FILLER_0_21_3
*630 FILLER_0_21_305
*631 FILLER_0_21_317
*632 FILLER_0_21_329
*633 FILLER_0_21_39
*634 FILLER_0_21_51
*635 FILLER_0_21_55
*636 FILLER_0_21_57
*637 FILLER_0_21_69
*638 FILLER_0_21_81
*639 FILLER_0_21_93
*640 FILLER_0_22_109
*641 FILLER_0_22_121
*642 FILLER_0_22_133
*643 FILLER_0_22_139
*644 FILLER_0_22_141
*645 FILLER_0_22_15
*646 FILLER_0_22_153
*647 FILLER_0_22_165
*648 FILLER_0_22_177
*649 FILLER_0_22_189
*650 FILLER_0_22_195
*651 FILLER_0_22_197
*652 FILLER_0_22_209
*653 FILLER_0_22_221
*654 FILLER_0_22_233
*655 FILLER_0_22_245
*656 FILLER_0_22_251
*657 FILLER_0_22_253
*658 FILLER_0_22_265
*659 FILLER_0_22_27
*660 FILLER_0_22_277
*661 FILLER_0_22_289
*662 FILLER_0_22_29
*663 FILLER_0_22_3
*664 FILLER_0_22_301
*665 FILLER_0_22_307
*666 FILLER_0_22_309
*667 FILLER_0_22_321
*668 FILLER_0_22_333
*669 FILLER_0_22_41
*670 FILLER_0_22_53
*671 FILLER_0_22_65
*672 FILLER_0_22_77
*673 FILLER_0_22_83
*674 FILLER_0_22_85
*675 FILLER_0_22_97
*676 FILLER_0_23_105
*677 FILLER_0_23_111
*678 FILLER_0_23_113
*679 FILLER_0_23_125
*680 FILLER_0_23_137
*681 FILLER_0_23_149
*682 FILLER_0_23_15
*683 FILLER_0_23_161
*684 FILLER_0_23_167
*685 FILLER_0_23_169
*686 FILLER_0_23_181
*687 FILLER_0_23_193
*688 FILLER_0_23_205
*689 FILLER_0_23_217
*690 FILLER_0_23_223
*691 FILLER_0_23_225
*692 FILLER_0_23_237
*693 FILLER_0_23_249
*694 FILLER_0_23_261
*695 FILLER_0_23_27
*696 FILLER_0_23_273
*697 FILLER_0_23_279
*698 FILLER_0_23_281
*699 FILLER_0_23_293
*700 FILLER_0_23_3
*701 FILLER_0_23_305
*702 FILLER_0_23_317
*703 FILLER_0_23_329
*704 FILLER_0_23_39
*705 FILLER_0_23_51
*706 FILLER_0_23_55
*707 FILLER_0_23_57
*708 FILLER_0_23_69
*709 FILLER_0_23_81
*710 FILLER_0_23_93
*711 FILLER_0_24_109
*712 FILLER_0_24_121
*713 FILLER_0_24_133
*714 FILLER_0_24_139
*715 FILLER_0_24_141
*716 FILLER_0_24_15
*717 FILLER_0_24_153
*718 FILLER_0_24_165
*719 FILLER_0_24_177
*720 FILLER_0_24_189
*721 FILLER_0_24_195
*722 FILLER_0_24_197
*723 FILLER_0_24_209
*724 FILLER_0_24_221
*725 FILLER_0_24_233
*726 FILLER_0_24_245
*727 FILLER_0_24_251
*728 FILLER_0_24_253
*729 FILLER_0_24_265
*730 FILLER_0_24_27
*731 FILLER_0_24_277
*732 FILLER_0_24_289
*733 FILLER_0_24_29
*734 FILLER_0_24_3
*735 FILLER_0_24_301
*736 FILLER_0_24_307
*737 FILLER_0_24_309
*738 FILLER_0_24_321
*739 FILLER_0_24_333
*740 FILLER_0_24_41
*741 FILLER_0_24_53
*742 FILLER_0_24_65
*743 FILLER_0_24_77
*744 FILLER_0_24_83
*745 FILLER_0_24_85
*746 FILLER_0_24_97
*747 FILLER_0_25_105
*748 FILLER_0_25_111
*749 FILLER_0_25_113
*750 FILLER_0_25_125
*751 FILLER_0_25_137
*752 FILLER_0_25_149
*753 FILLER_0_25_15
*754 FILLER_0_25_161
*755 FILLER_0_25_167
*756 FILLER_0_25_169
*757 FILLER_0_25_181
*758 FILLER_0_25_193
*759 FILLER_0_25_205
*760 FILLER_0_25_217
*761 FILLER_0_25_223
*762 FILLER_0_25_225
*763 FILLER_0_25_237
*764 FILLER_0_25_249
*765 FILLER_0_25_261
*766 FILLER_0_25_27
*767 FILLER_0_25_273
*768 FILLER_0_25_279
*769 FILLER_0_25_281
*770 FILLER_0_25_293
*771 FILLER_0_25_3
*772 FILLER_0_25_305
*773 FILLER_0_25_317
*774 FILLER_0_25_329
*775 FILLER_0_25_39
*776 FILLER_0_25_51
*777 FILLER_0_25_55
*778 FILLER_0_25_57
*779 FILLER_0_25_69
*780 FILLER_0_25_81
*781 FILLER_0_25_93
*782 FILLER_0_26_109
*783 FILLER_0_26_121
*784 FILLER_0_26_133
*785 FILLER_0_26_139
*786 FILLER_0_26_141
*787 FILLER_0_26_15
*788 FILLER_0_26_153
*789 FILLER_0_26_165
*790 FILLER_0_26_177
*791 FILLER_0_26_189
*792 FILLER_0_26_195
*793 FILLER_0_26_197
*794 FILLER_0_26_209
*795 FILLER_0_26_221
*796 FILLER_0_26_233
*797 FILLER_0_26_245
*798 FILLER_0_26_251
*799 FILLER_0_26_253
*800 FILLER_0_26_265
*801 FILLER_0_26_27
*802 FILLER_0_26_277
*803 FILLER_0_26_289
*804 FILLER_0_26_29
*805 FILLER_0_26_3
*806 FILLER_0_26_301
*807 FILLER_0_26_307
*808 FILLER_0_26_309
*809 FILLER_0_26_321
*810 FILLER_0_26_333
*811 FILLER_0_26_41
*812 FILLER_0_26_53
*813 FILLER_0_26_65
*814 FILLER_0_26_77
*815 FILLER_0_26_83
*816 FILLER_0_26_85
*817 FILLER_0_26_97
*818 FILLER_0_27_105
*819 FILLER_0_27_111
*820 FILLER_0_27_113
*821 FILLER_0_27_125
*822 FILLER_0_27_137
*823 FILLER_0_27_149
*824 FILLER_0_27_15
*825 FILLER_0_27_161
*826 FILLER_0_27_167
*827 FILLER_0_27_169
*828 FILLER_0_27_181
*829 FILLER_0_27_193
*830 FILLER_0_27_205
*831 FILLER_0_27_217
*832 FILLER_0_27_223
*833 FILLER_0_27_225
*834 FILLER_0_27_237
*835 FILLER_0_27_249
*836 FILLER_0_27_261
*837 FILLER_0_27_27
*838 FILLER_0_27_273
*839 FILLER_0_27_279
*840 FILLER_0_27_281
*841 FILLER_0_27_293
*842 FILLER_0_27_3
*843 FILLER_0_27_305
*844 FILLER_0_27_317
*845 FILLER_0_27_329
*846 FILLER_0_27_39
*847 FILLER_0_27_51
*848 FILLER_0_27_55
*849 FILLER_0_27_57
*850 FILLER_0_27_69
*851 FILLER_0_27_81
*852 FILLER_0_27_93
*853 FILLER_0_28_109
*854 FILLER_0_28_121
*855 FILLER_0_28_133
*856 FILLER_0_28_139
*857 FILLER_0_28_141
*858 FILLER_0_28_15
*859 FILLER_0_28_153
*860 FILLER_0_28_165
*861 FILLER_0_28_177
*862 FILLER_0_28_189
*863 FILLER_0_28_195
*864 FILLER_0_28_197
*865 FILLER_0_28_209
*866 FILLER_0_28_221
*867 FILLER_0_28_233
*868 FILLER_0_28_245
*869 FILLER_0_28_251
*870 FILLER_0_28_253
*871 FILLER_0_28_265
*872 FILLER_0_28_27
*873 FILLER_0_28_277
*874 FILLER_0_28_289
*875 FILLER_0_28_29
*876 FILLER_0_28_3
*877 FILLER_0_28_301
*878 FILLER_0_28_307
*879 FILLER_0_28_309
*880 FILLER_0_28_321
*881 FILLER_0_28_333
*882 FILLER_0_28_41
*883 FILLER_0_28_53
*884 FILLER_0_28_65
*885 FILLER_0_28_77
*886 FILLER_0_28_83
*887 FILLER_0_28_85
*888 FILLER_0_28_97
*889 FILLER_0_29_105
*890 FILLER_0_29_111
*891 FILLER_0_29_113
*892 FILLER_0_29_125
*893 FILLER_0_29_137
*894 FILLER_0_29_149
*895 FILLER_0_29_15
*896 FILLER_0_29_161
*897 FILLER_0_29_167
*898 FILLER_0_29_169
*899 FILLER_0_29_181
*900 FILLER_0_29_193
*901 FILLER_0_29_205
*902 FILLER_0_29_217
*903 FILLER_0_29_223
*904 FILLER_0_29_225
*905 FILLER_0_29_237
*906 FILLER_0_29_249
*907 FILLER_0_29_261
*908 FILLER_0_29_27
*909 FILLER_0_29_273
*910 FILLER_0_29_279
*911 FILLER_0_29_281
*912 FILLER_0_29_293
*913 FILLER_0_29_3
*914 FILLER_0_29_305
*915 FILLER_0_29_317
*916 FILLER_0_29_329
*917 FILLER_0_29_39
*918 FILLER_0_29_51
*919 FILLER_0_29_55
*920 FILLER_0_29_57
*921 FILLER_0_29_69
*922 FILLER_0_29_81
*923 FILLER_0_29_93
*924 FILLER_0_2_109
*925 FILLER_0_2_121
*926 FILLER_0_2_133
*927 FILLER_0_2_139
*928 FILLER_0_2_141
*929 FILLER_0_2_15
*930 FILLER_0_2_153
*931 FILLER_0_2_165
*932 FILLER_0_2_177
*933 FILLER_0_2_189
*934 FILLER_0_2_195
*935 FILLER_0_2_197
*936 FILLER_0_2_209
*937 FILLER_0_2_221
*938 FILLER_0_2_233
*939 FILLER_0_2_245
*940 FILLER_0_2_251
*941 FILLER_0_2_253
*942 FILLER_0_2_265
*943 FILLER_0_2_27
*944 FILLER_0_2_277
*945 FILLER_0_2_289
*946 FILLER_0_2_29
*947 FILLER_0_2_3
*948 FILLER_0_2_301
*949 FILLER_0_2_307
*950 FILLER_0_2_309
*951 FILLER_0_2_321
*952 FILLER_0_2_333
*953 FILLER_0_2_41
*954 FILLER_0_2_53
*955 FILLER_0_2_65
*956 FILLER_0_2_77
*957 FILLER_0_2_83
*958 FILLER_0_2_85
*959 FILLER_0_2_97
*960 FILLER_0_30_109
*961 FILLER_0_30_121
*962 FILLER_0_30_133
*963 FILLER_0_30_139
*964 FILLER_0_30_15
*965 FILLER_0_30_161
*966 FILLER_0_30_173
*967 FILLER_0_30_181
*968 FILLER_0_30_185
*969 FILLER_0_30_193
*970 FILLER_0_30_197
*971 FILLER_0_30_209
*972 FILLER_0_30_221
*973 FILLER_0_30_233
*974 FILLER_0_30_245
*975 FILLER_0_30_251
*976 FILLER_0_30_253
*977 FILLER_0_30_265
*978 FILLER_0_30_27
*979 FILLER_0_30_277
*980 FILLER_0_30_289
*981 FILLER_0_30_29
*982 FILLER_0_30_3
*983 FILLER_0_30_301
*984 FILLER_0_30_307
*985 FILLER_0_30_309
*986 FILLER_0_30_321
*987 FILLER_0_30_333
*988 FILLER_0_30_41
*989 FILLER_0_30_53
*990 FILLER_0_30_65
*991 FILLER_0_30_77
*992 FILLER_0_30_83
*993 FILLER_0_30_85
*994 FILLER_0_30_97
*995 FILLER_0_31_106
*996 FILLER_0_31_110
*997 FILLER_0_31_113
*998 FILLER_0_31_141
*999 FILLER_0_31_15
*1000 FILLER_0_31_162
*1001 FILLER_0_31_167
*1002 FILLER_0_31_169
*1003 FILLER_0_31_175
*1004 FILLER_0_31_196
*1005 FILLER_0_31_208
*1006 FILLER_0_31_220
*1007 FILLER_0_31_225
*1008 FILLER_0_31_237
*1009 FILLER_0_31_249
*1010 FILLER_0_31_261
*1011 FILLER_0_31_27
*1012 FILLER_0_31_273
*1013 FILLER_0_31_279
*1014 FILLER_0_31_281
*1015 FILLER_0_31_293
*1016 FILLER_0_31_3
*1017 FILLER_0_31_305
*1018 FILLER_0_31_317
*1019 FILLER_0_31_329
*1020 FILLER_0_31_39
*1021 FILLER_0_31_51
*1022 FILLER_0_31_55
*1023 FILLER_0_31_57
*1024 FILLER_0_31_69
*1025 FILLER_0_31_98
*1026 FILLER_0_32_122
*1027 FILLER_0_32_149
*1028 FILLER_0_32_15
*1029 FILLER_0_32_195
*1030 FILLER_0_32_206
*1031 FILLER_0_32_218
*1032 FILLER_0_32_230
*1033 FILLER_0_32_242
*1034 FILLER_0_32_250
*1035 FILLER_0_32_253
*1036 FILLER_0_32_265
*1037 FILLER_0_32_27
*1038 FILLER_0_32_277
*1039 FILLER_0_32_289
*1040 FILLER_0_32_29
*1041 FILLER_0_32_3
*1042 FILLER_0_32_301
*1043 FILLER_0_32_307
*1044 FILLER_0_32_309
*1045 FILLER_0_32_321
*1046 FILLER_0_32_333
*1047 FILLER_0_32_41
*1048 FILLER_0_32_53
*1049 FILLER_0_32_65
*1050 FILLER_0_32_73
*1051 FILLER_0_32_85
*1052 FILLER_0_32_96
*1053 FILLER_0_33_130
*1054 FILLER_0_33_138
*1055 FILLER_0_33_15
*1056 FILLER_0_33_158
*1057 FILLER_0_33_164
*1058 FILLER_0_33_169
*1059 FILLER_0_33_208
*1060 FILLER_0_33_214
*1061 FILLER_0_33_225
*1062 FILLER_0_33_237
*1063 FILLER_0_33_249
*1064 FILLER_0_33_261
*1065 FILLER_0_33_27
*1066 FILLER_0_33_273
*1067 FILLER_0_33_279
*1068 FILLER_0_33_281
*1069 FILLER_0_33_293
*1070 FILLER_0_33_3
*1071 FILLER_0_33_305
*1072 FILLER_0_33_317
*1073 FILLER_0_33_329
*1074 FILLER_0_33_39
*1075 FILLER_0_33_51
*1076 FILLER_0_33_55
*1077 FILLER_0_33_57
*1078 FILLER_0_33_69
*1079 FILLER_0_34_112
*1080 FILLER_0_34_141
*1081 FILLER_0_34_15
*1082 FILLER_0_34_175
*1083 FILLER_0_34_202
*1084 FILLER_0_34_210
*1085 FILLER_0_34_232
*1086 FILLER_0_34_244
*1087 FILLER_0_34_253
*1088 FILLER_0_34_265
*1089 FILLER_0_34_27
*1090 FILLER_0_34_277
*1091 FILLER_0_34_289
*1092 FILLER_0_34_29
*1093 FILLER_0_34_3
*1094 FILLER_0_34_301
*1095 FILLER_0_34_307
*1096 FILLER_0_34_309
*1097 FILLER_0_34_321
*1098 FILLER_0_34_333
*1099 FILLER_0_34_41
*1100 FILLER_0_34_53
*1101 FILLER_0_34_65
*1102 FILLER_0_34_77
*1103 FILLER_0_34_83
*1104 FILLER_0_34_85
*1105 FILLER_0_34_91
*1106 FILLER_0_35_109
*1107 FILLER_0_35_113
*1108 FILLER_0_35_15
*1109 FILLER_0_35_158
*1110 FILLER_0_35_175
*1111 FILLER_0_35_196
*1112 FILLER_0_35_209
*1113 FILLER_0_35_221
*1114 FILLER_0_35_234
*1115 FILLER_0_35_246
*1116 FILLER_0_35_258
*1117 FILLER_0_35_27
*1118 FILLER_0_35_270
*1119 FILLER_0_35_278
*1120 FILLER_0_35_281
*1121 FILLER_0_35_293
*1122 FILLER_0_35_3
*1123 FILLER_0_35_305
*1124 FILLER_0_35_317
*1125 FILLER_0_35_329
*1126 FILLER_0_35_39
*1127 FILLER_0_35_51
*1128 FILLER_0_35_55
*1129 FILLER_0_35_57
*1130 FILLER_0_35_69
*1131 FILLER_0_35_77
*1132 FILLER_0_36_116
*1133 FILLER_0_36_15
*1134 FILLER_0_36_195
*1135 FILLER_0_36_237
*1136 FILLER_0_36_249
*1137 FILLER_0_36_253
*1138 FILLER_0_36_265
*1139 FILLER_0_36_27
*1140 FILLER_0_36_277
*1141 FILLER_0_36_289
*1142 FILLER_0_36_29
*1143 FILLER_0_36_3
*1144 FILLER_0_36_301
*1145 FILLER_0_36_307
*1146 FILLER_0_36_309
*1147 FILLER_0_36_321
*1148 FILLER_0_36_333
*1149 FILLER_0_36_41
*1150 FILLER_0_36_53
*1151 FILLER_0_36_65
*1152 FILLER_0_36_77
*1153 FILLER_0_36_83
*1154 FILLER_0_37_110
*1155 FILLER_0_37_116
*1156 FILLER_0_37_126
*1157 FILLER_0_37_15
*1158 FILLER_0_37_167
*1159 FILLER_0_37_202
*1160 FILLER_0_37_225
*1161 FILLER_0_37_233
*1162 FILLER_0_37_238
*1163 FILLER_0_37_250
*1164 FILLER_0_37_262
*1165 FILLER_0_37_27
*1166 FILLER_0_37_274
*1167 FILLER_0_37_281
*1168 FILLER_0_37_293
*1169 FILLER_0_37_3
*1170 FILLER_0_37_305
*1171 FILLER_0_37_317
*1172 FILLER_0_37_329
*1173 FILLER_0_37_39
*1174 FILLER_0_37_51
*1175 FILLER_0_37_55
*1176 FILLER_0_37_57
*1177 FILLER_0_37_75
*1178 FILLER_0_38_10
*1179 FILLER_0_38_110
*1180 FILLER_0_38_121
*1181 FILLER_0_38_129
*1182 FILLER_0_38_137
*1183 FILLER_0_38_14
*1184 FILLER_0_38_162
*1185 FILLER_0_38_173
*1186 FILLER_0_38_18
*1187 FILLER_0_38_185
*1188 FILLER_0_38_193
*1189 FILLER_0_38_197
*1190 FILLER_0_38_212
*1191 FILLER_0_38_22
*1192 FILLER_0_38_235
*1193 FILLER_0_38_246
*1194 FILLER_0_38_256
*1195 FILLER_0_38_268
*1196 FILLER_0_38_281
*1197 FILLER_0_38_293
*1198 FILLER_0_38_305
*1199 FILLER_0_38_309
*1200 FILLER_0_38_32
*1201 FILLER_0_38_321
*1202 FILLER_0_38_326
*1203 FILLER_0_38_334
*1204 FILLER_0_38_38
*1205 FILLER_0_38_42
*1206 FILLER_0_38_46
*1207 FILLER_0_38_50
*1208 FILLER_0_38_54
*1209 FILLER_0_38_57
*1210 FILLER_0_38_6
*1211 FILLER_0_38_62
*1212 FILLER_0_38_74
*1213 FILLER_0_38_82
*1214 FILLER_0_38_85
*1215 FILLER_0_38_93
*1216 FILLER_0_3_105
*1217 FILLER_0_3_111
*1218 FILLER_0_3_113
*1219 FILLER_0_3_125
*1220 FILLER_0_3_137
*1221 FILLER_0_3_149
*1222 FILLER_0_3_15
*1223 FILLER_0_3_161
*1224 FILLER_0_3_167
*1225 FILLER_0_3_169
*1226 FILLER_0_3_181
*1227 FILLER_0_3_193
*1228 FILLER_0_3_205
*1229 FILLER_0_3_217
*1230 FILLER_0_3_223
*1231 FILLER_0_3_225
*1232 FILLER_0_3_237
*1233 FILLER_0_3_249
*1234 FILLER_0_3_261
*1235 FILLER_0_3_27
*1236 FILLER_0_3_273
*1237 FILLER_0_3_279
*1238 FILLER_0_3_281
*1239 FILLER_0_3_293
*1240 FILLER_0_3_3
*1241 FILLER_0_3_305
*1242 FILLER_0_3_317
*1243 FILLER_0_3_329
*1244 FILLER_0_3_39
*1245 FILLER_0_3_51
*1246 FILLER_0_3_55
*1247 FILLER_0_3_57
*1248 FILLER_0_3_69
*1249 FILLER_0_3_81
*1250 FILLER_0_3_93
*1251 FILLER_0_4_109
*1252 FILLER_0_4_121
*1253 FILLER_0_4_133
*1254 FILLER_0_4_139
*1255 FILLER_0_4_141
*1256 FILLER_0_4_15
*1257 FILLER_0_4_153
*1258 FILLER_0_4_165
*1259 FILLER_0_4_177
*1260 FILLER_0_4_189
*1261 FILLER_0_4_195
*1262 FILLER_0_4_197
*1263 FILLER_0_4_209
*1264 FILLER_0_4_221
*1265 FILLER_0_4_233
*1266 FILLER_0_4_245
*1267 FILLER_0_4_251
*1268 FILLER_0_4_253
*1269 FILLER_0_4_265
*1270 FILLER_0_4_27
*1271 FILLER_0_4_277
*1272 FILLER_0_4_289
*1273 FILLER_0_4_29
*1274 FILLER_0_4_3
*1275 FILLER_0_4_301
*1276 FILLER_0_4_307
*1277 FILLER_0_4_309
*1278 FILLER_0_4_321
*1279 FILLER_0_4_333
*1280 FILLER_0_4_41
*1281 FILLER_0_4_53
*1282 FILLER_0_4_65
*1283 FILLER_0_4_77
*1284 FILLER_0_4_83
*1285 FILLER_0_4_85
*1286 FILLER_0_4_97
*1287 FILLER_0_5_105
*1288 FILLER_0_5_111
*1289 FILLER_0_5_113
*1290 FILLER_0_5_125
*1291 FILLER_0_5_137
*1292 FILLER_0_5_149
*1293 FILLER_0_5_15
*1294 FILLER_0_5_161
*1295 FILLER_0_5_167
*1296 FILLER_0_5_169
*1297 FILLER_0_5_181
*1298 FILLER_0_5_193
*1299 FILLER_0_5_205
*1300 FILLER_0_5_217
*1301 FILLER_0_5_223
*1302 FILLER_0_5_225
*1303 FILLER_0_5_237
*1304 FILLER_0_5_249
*1305 FILLER_0_5_261
*1306 FILLER_0_5_27
*1307 FILLER_0_5_273
*1308 FILLER_0_5_279
*1309 FILLER_0_5_281
*1310 FILLER_0_5_293
*1311 FILLER_0_5_3
*1312 FILLER_0_5_305
*1313 FILLER_0_5_317
*1314 FILLER_0_5_329
*1315 FILLER_0_5_39
*1316 FILLER_0_5_51
*1317 FILLER_0_5_55
*1318 FILLER_0_5_57
*1319 FILLER_0_5_69
*1320 FILLER_0_5_81
*1321 FILLER_0_5_93
*1322 FILLER_0_6_109
*1323 FILLER_0_6_121
*1324 FILLER_0_6_133
*1325 FILLER_0_6_139
*1326 FILLER_0_6_141
*1327 FILLER_0_6_15
*1328 FILLER_0_6_153
*1329 FILLER_0_6_165
*1330 FILLER_0_6_177
*1331 FILLER_0_6_189
*1332 FILLER_0_6_195
*1333 FILLER_0_6_197
*1334 FILLER_0_6_209
*1335 FILLER_0_6_221
*1336 FILLER_0_6_233
*1337 FILLER_0_6_245
*1338 FILLER_0_6_251
*1339 FILLER_0_6_253
*1340 FILLER_0_6_265
*1341 FILLER_0_6_27
*1342 FILLER_0_6_277
*1343 FILLER_0_6_289
*1344 FILLER_0_6_29
*1345 FILLER_0_6_3
*1346 FILLER_0_6_301
*1347 FILLER_0_6_307
*1348 FILLER_0_6_309
*1349 FILLER_0_6_321
*1350 FILLER_0_6_333
*1351 FILLER_0_6_41
*1352 FILLER_0_6_53
*1353 FILLER_0_6_65
*1354 FILLER_0_6_77
*1355 FILLER_0_6_83
*1356 FILLER_0_6_85
*1357 FILLER_0_6_97
*1358 FILLER_0_7_105
*1359 FILLER_0_7_111
*1360 FILLER_0_7_113
*1361 FILLER_0_7_125
*1362 FILLER_0_7_137
*1363 FILLER_0_7_149
*1364 FILLER_0_7_15
*1365 FILLER_0_7_161
*1366 FILLER_0_7_167
*1367 FILLER_0_7_169
*1368 FILLER_0_7_181
*1369 FILLER_0_7_193
*1370 FILLER_0_7_205
*1371 FILLER_0_7_217
*1372 FILLER_0_7_223
*1373 FILLER_0_7_225
*1374 FILLER_0_7_237
*1375 FILLER_0_7_249
*1376 FILLER_0_7_261
*1377 FILLER_0_7_27
*1378 FILLER_0_7_273
*1379 FILLER_0_7_279
*1380 FILLER_0_7_281
*1381 FILLER_0_7_293
*1382 FILLER_0_7_3
*1383 FILLER_0_7_305
*1384 FILLER_0_7_317
*1385 FILLER_0_7_329
*1386 FILLER_0_7_39
*1387 FILLER_0_7_51
*1388 FILLER_0_7_55
*1389 FILLER_0_7_57
*1390 FILLER_0_7_69
*1391 FILLER_0_7_81
*1392 FILLER_0_7_93
*1393 FILLER_0_8_109
*1394 FILLER_0_8_121
*1395 FILLER_0_8_133
*1396 FILLER_0_8_139
*1397 FILLER_0_8_141
*1398 FILLER_0_8_15
*1399 FILLER_0_8_153
*1400 FILLER_0_8_165
*1401 FILLER_0_8_177
*1402 FILLER_0_8_189
*1403 FILLER_0_8_195
*1404 FILLER_0_8_197
*1405 FILLER_0_8_209
*1406 FILLER_0_8_221
*1407 FILLER_0_8_233
*1408 FILLER_0_8_245
*1409 FILLER_0_8_251
*1410 FILLER_0_8_253
*1411 FILLER_0_8_265
*1412 FILLER_0_8_27
*1413 FILLER_0_8_277
*1414 FILLER_0_8_289
*1415 FILLER_0_8_29
*1416 FILLER_0_8_3
*1417 FILLER_0_8_301
*1418 FILLER_0_8_307
*1419 FILLER_0_8_309
*1420 FILLER_0_8_321
*1421 FILLER_0_8_333
*1422 FILLER_0_8_41
*1423 FILLER_0_8_53
*1424 FILLER_0_8_65
*1425 FILLER_0_8_77
*1426 FILLER_0_8_83
*1427 FILLER_0_8_85
*1428 FILLER_0_8_97
*1429 FILLER_0_9_105
*1430 FILLER_0_9_111
*1431 FILLER_0_9_113
*1432 FILLER_0_9_125
*1433 FILLER_0_9_137
*1434 FILLER_0_9_149
*1435 FILLER_0_9_15
*1436 FILLER_0_9_161
*1437 FILLER_0_9_167
*1438 FILLER_0_9_169
*1439 FILLER_0_9_181
*1440 FILLER_0_9_193
*1441 FILLER_0_9_205
*1442 FILLER_0_9_217
*1443 FILLER_0_9_223
*1444 FILLER_0_9_225
*1445 FILLER_0_9_237
*1446 FILLER_0_9_249
*1447 FILLER_0_9_261
*1448 FILLER_0_9_27
*1449 FILLER_0_9_273
*1450 FILLER_0_9_279
*1451 FILLER_0_9_281
*1452 FILLER_0_9_293
*1453 FILLER_0_9_3
*1454 FILLER_0_9_305
*1455 FILLER_0_9_317
*1456 FILLER_0_9_329
*1457 FILLER_0_9_39
*1458 FILLER_0_9_51
*1459 FILLER_0_9_55
*1460 FILLER_0_9_57
*1461 FILLER_0_9_69
*1462 FILLER_0_9_81
*1463 FILLER_0_9_93
*1464 PHY_EDGE_ROW_0_Left_39
*1465 PHY_EDGE_ROW_0_Right_0
*1466 PHY_EDGE_ROW_10_Left_49
*1467 PHY_EDGE_ROW_10_Right_10
*1468 PHY_EDGE_ROW_11_Left_50
*1469 PHY_EDGE_ROW_11_Right_11
*1470 PHY_EDGE_ROW_12_Left_51
*1471 PHY_EDGE_ROW_12_Right_12
*1472 PHY_EDGE_ROW_13_Left_52
*1473 PHY_EDGE_ROW_13_Right_13
*1474 PHY_EDGE_ROW_14_Left_53
*1475 PHY_EDGE_ROW_14_Right_14
*1476 PHY_EDGE_ROW_15_Left_54
*1477 PHY_EDGE_ROW_15_Right_15
*1478 PHY_EDGE_ROW_16_Left_55
*1479 PHY_EDGE_ROW_16_Right_16
*1480 PHY_EDGE_ROW_17_Left_56
*1481 PHY_EDGE_ROW_17_Right_17