*SPEF "ieee 1481-1999"
*DESIGN "tt_um_disp1"
*DATE "19:19:39 Saturday April 13, 2024"
*VENDOR "The OpenROAD Project"
*PROGRAM "OpenROAD"
*VERSION "0889970d1790a2617e69f253221b8bd7626e51dc"
*DESIGN_FLOW "NAME_SCOPE LOCAL" "PIN_CAP NONE"
*DIVIDER /
*DELIMITER :
*BUS_DELIMITER []
*T_UNIT 1 NS
*C_UNIT 1 PF
*R_UNIT 1 OHM
*L_UNIT 1 HENRY

*NAME_MAP
*3 clk
*4 ena
*5 rst_n
*6 ui_in[0]
*7 ui_in[1]
*8 ui_in[2]
*9 ui_in[3]
*10 ui_in[4]
*11 ui_in[5]
*12 ui_in[6]
*13 ui_in[7]
*14 uio_in[0]
*15 uio_in[1]
*16 uio_in[2]
*17 uio_in[3]
*18 uio_in[4]
*19 uio_in[5]
*20 uio_in[6]
*21 uio_in[7]
*22 net11
*23 net12
*24 net13
*25 net14
*26 net15
*27 net16
*28 net17
*29 net18
*30 net19
*31 net20
*32 net21
*33 net22
*34 net23
*35 net24
*36 net25
*37 net26
*38 uo_out[0]
*39 uo_out[1]
*40 uo_out[2]
*41 uo_out[3]
*42 uo_out[4]
*43 uo_out[5]
*44 net27
*45 net28
*46 E
*47 _000_
*48 _001_
*49 _002_
*50 _003_
*51 _004_
*52 _005_
*53 _006_
*54 _007_
*55 _008_
*56 _009_
*57 _010_
*58 _011_
*59 _012_
*60 _013_
*61 _014_
*62 _015_
*63 _016_
*64 _017_
*65 _018_
*66 _019_
*67 _020_
*68 _021_
*69 _022_
*70 _023_
*71 _024_
*72 _025_
*73 _026_
*74 _027_
*75 _028_
*76 _029_
*77 _030_
*78 _031_
*79 _032_
*80 _033_
*81 _034_
*82 _035_
*83 _036_
*84 _037_
*85 _038_
*86 _039_
*87 _040_
*88 _041_
*89 _042_
*90 _043_
*91 _044_
*92 _045_
*93 _046_
*94 _047_
*95 _048_
*96 _049_
*97 _050_
*98 _051_
*99 _052_
*100 _053_
*101 _054_
*102 _055_
*103 _056_
*104 _057_
*105 _058_
*106 _059_
*107 _060_
*108 _061_
*109 _062_
*110 _063_
*111 _064_
*112 _065_
*113 _066_
*114 _067_
*115 _068_
*116 _069_
*117 _070_
*118 _071_
*119 _072_
*120 _073_
*121 _074_
*122 _075_
*123 _076_
*124 _077_
*125 _078_
*126 _079_
*127 _080_
*128 _081_
*129 _082_
*130 _083_
*131 _084_
*132 _085_
*133 _086_
*134 _087_
*135 _088_
*136 _089_
*137 _090_
*138 _091_
*139 _092_
*140 _093_
*141 _094_
*142 _095_
*143 _096_
*144 _097_
*145 _098_
*146 _099_
*147 _100_
*148 _101_
*149 _102_
*150 _103_
*151 _104_
*152 _105_
*153 _106_
*154 _107_
*155 _108_
*156 _109_
*157 _110_
*158 _111_
*159 _112_
*160 _113_
*161 _114_
*162 _115_
*163 _116_
*164 _117_
*165 _118_
*166 _119_
*167 _120_
*168 _121_
*169 _122_
*170 _123_
*171 _124_
*172 _125_
*173 _126_
*174 _127_
*175 _128_
*176 _129_
*177 _130_
*178 _131_
*179 _132_
*180 _133_
*181 _134_
*182 _135_
*183 _136_
*184 _137_
*185 _138_
*186 _139_
*187 _140_
*188 _141_
*189 _142_
*190 _143_
*191 _144_
*192 _145_
*193 _146_
*194 _147_
*195 _148_
*196 _149_
*197 _150_
*198 _151_
*199 _152_
*200 _153_
*201 _154_
*202 _155_
*203 _156_
*204 _157_
*205 _158_
*206 _159_
*207 _160_
*208 _161_
*209 _162_
*210 _163_
*211 _164_
*212 _165_
*213 _166_
*214 _167_
*215 _168_
*216 _169_
*217 _170_
*218 _171_
*219 _172_
*220 _173_
*221 _174_
*222 _175_
*223 clknet_0_clk
*224 clknet_1_0__leaf_clk
*225 clknet_1_1__leaf_clk
*226 counter\[0\]
*227 counter\[1\]
*228 counter\[2\]
*229 counter\[3\]
*230 counter\[4\]
*231 counter\[5\]
*232 net1
*233 net10
*234 net2
*235 net29
*236 net3
*237 net30
*238 net31
*239 net32
*240 net33
*241 net4
*242 net5
*243 net6
*244 net7
*245 net8
*246 net9
*247 seq\[0\]
*248 seq\[1\]
*249 seq\[2\]
*250 seq\[3\]
*251 seq\[4\]
*252 seq\[5\]
*253 seq\[6\]
*254 seq\[7\]
*255 FILLER_0_0_109
*256 FILLER_0_0_113
*257 FILLER_0_0_125
*258 FILLER_0_0_137
*259 FILLER_0_0_141
*260 FILLER_0_0_15
*261 FILLER_0_0_153
*262 FILLER_0_0_165
*263 FILLER_0_0_169
*264 FILLER_0_0_181
*265 FILLER_0_0_193
*266 FILLER_0_0_197
*267 FILLER_0_0_209
*268 FILLER_0_0_221
*269 FILLER_0_0_225
*270 FILLER_0_0_237
*271 FILLER_0_0_249
*272 FILLER_0_0_253
*273 FILLER_0_0_265
*274 FILLER_0_0_27
*275 FILLER_0_0_277
*276 FILLER_0_0_281
*277 FILLER_0_0_29
*278 FILLER_0_0_293
*279 FILLER_0_0_3
*280 FILLER_0_0_305
*281 FILLER_0_0_309
*282 FILLER_0_0_321
*283 FILLER_0_0_333
*284 FILLER_0_0_41
*285 FILLER_0_0_53
*286 FILLER_0_0_57
*287 FILLER_0_0_69
*288 FILLER_0_0_81
*289 FILLER_0_0_85
*290 FILLER_0_0_97
*291 FILLER_0_10_109
*292 FILLER_0_10_121
*293 FILLER_0_10_133
*294 FILLER_0_10_139
*295 FILLER_0_10_141
*296 FILLER_0_10_15
*297 FILLER_0_10_153
*298 FILLER_0_10_165
*299 FILLER_0_10_177
*300 FILLER_0_10_189
*301 FILLER_0_10_195
*302 FILLER_0_10_197
*303 FILLER_0_10_209
*304 FILLER_0_10_221
*305 FILLER_0_10_233
*306 FILLER_0_10_245
*307 FILLER_0_10_251
*308 FILLER_0_10_253
*309 FILLER_0_10_265
*310 FILLER_0_10_27
*311 FILLER_0_10_277
*312 FILLER_0_10_289
*313 FILLER_0_10_29
*314 FILLER_0_10_3
*315 FILLER_0_10_301
*316 FILLER_0_10_307
*317 FILLER_0_10_309
*318 FILLER_0_10_321
*319 FILLER_0_10_333
*320 FILLER_0_10_41
*321 FILLER_0_10_53
*322 FILLER_0_10_65
*323 FILLER_0_10_77
*324 FILLER_0_10_83
*325 FILLER_0_10_85
*326 FILLER_0_10_97
*327 FILLER_0_11_105
*328 FILLER_0_11_111
*329 FILLER_0_11_113
*330 FILLER_0_11_125
*331 FILLER_0_11_137
*332 FILLER_0_11_149
*333 FILLER_0_11_15
*334 FILLER_0_11_161
*335 FILLER_0_11_167
*336 FILLER_0_11_169
*337 FILLER_0_11_181
*338 FILLER_0_11_193
*339 FILLER_0_11_205
*340 FILLER_0_11_217
*341 FILLER_0_11_223
*342 FILLER_0_11_225
*343 FILLER_0_11_237
*344 FILLER_0_11_249
*345 FILLER_0_11_261
*346 FILLER_0_11_27
*347 FILLER_0_11_273
*348 FILLER_0_11_279
*349 FILLER_0_11_281
*350 FILLER_0_11_293
*351 FILLER_0_11_3
*352 FILLER_0_11_305
*353 FILLER_0_11_317
*354 FILLER_0_11_329
*355 FILLER_0_11_39
*356 FILLER_0_11_51
*357 FILLER_0_11_55
*358 FILLER_0_11_57
*359 FILLER_0_11_69
*360 FILLER_0_11_81
*361 FILLER_0_11_93
*362 FILLER_0_12_109
*363 FILLER_0_12_121
*364 FILLER_0_12_133
*365 FILLER_0_12_139
*366 FILLER_0_12_141
*367 FILLER_0_12_15
*368 FILLER_0_12_153
*369 FILLER_0_12_165
*370 FILLER_0_12_177
*371 FILLER_0_12_189
*372 FILLER_0_12_195
*373 FILLER_0_12_197
*374 FILLER_0_12_209
*375 FILLER_0_12_221
*376 FILLER_0_12_233
*377 FILLER_0_12_245
*378 FILLER_0_12_251
*379 FILLER_0_12_253
*380 FILLER_0_12_265
*381 FILLER_0_12_27
*382 FILLER_0_12_277
*383 FILLER_0_12_289
*384 FILLER_0_12_29
*385 FILLER_0_12_3
*386 FILLER_0_12_301
*387 FILLER_0_12_307
*388 FILLER_0_12_309
*389 FILLER_0_12_321
*390 FILLER_0_12_333
*391 FILLER_0_12_41
*392 FILLER_0_12_53
*393 FILLER_0_12_65
*394 FILLER_0_12_77
*395 FILLER_0_12_83
*396 FILLER_0_12_85
*397 FILLER_0_12_97
*398 FILLER_0_13_105
*399 FILLER_0_13_111
*400 FILLER_0_13_113
*401 FILLER_0_13_125
*402 FILLER_0_13_137
*403 FILLER_0_13_149
*404 FILLER_0_13_15
*405 FILLER_0_13_161
*406 FILLER_0_13_167
*407 FILLER_0_13_169
*408 FILLER_0_13_181
*409 FILLER_0_13_193
*410 FILLER_0_13_205
*411 FILLER_0_13_217
*412 FILLER_0_13_223
*413 FILLER_0_13_225
*414 FILLER_0_13_237
*415 FILLER_0_13_249
*416 FILLER_0_13_261
*417 FILLER_0_13_27
*418 FILLER_0_13_273
*419 FILLER_0_13_279
*420 FILLER_0_13_281
*421 FILLER_0_13_293
*422 FILLER_0_13_3
*423 FILLER_0_13_305
*424 FILLER_0_13_317
*425 FILLER_0_13_329
*426 FILLER_0_13_39
*427 FILLER_0_13_51
*428 FILLER_0_13_55
*429 FILLER_0_13_57
*430 FILLER_0_13_69
*431 FILLER_0_13_81
*432 FILLER_0_13_93
*433 FILLER_0_14_109
*434 FILLER_0_14_121
*435 FILLER_0_14_133
*436 FILLER_0_14_139
*437 FILLER_0_14_141
*438 FILLER_0_14_15
*439 FILLER_0_14_153
*440 FILLER_0_14_165
*441 FILLER_0_14_177
*442 FILLER_0_14_189
*443 FILLER_0_14_195
*444 FILLER_0_14_197
*445 FILLER_0_14_209
*446 FILLER_0_14_221
*447 FILLER_0_14_233
*448 FILLER_0_14_245
*449 FILLER_0_14_251
*450 FILLER_0_14_253
*451 FILLER_0_14_265
*452 FILLER_0_14_27
*453 FILLER_0_14_277
*454 FILLER_0_14_289
*455 FILLER_0_14_29
*456 FILLER_0_14_3
*457 FILLER_0_14_301
*458 FILLER_0_14_307
*459 FILLER_0_14_309
*460 FILLER_0_14_321
*461 FILLER_0_14_333
*462 FILLER_0_14_41
*463 FILLER_0_14_53
*464 FILLER_0_14_65
*465 FILLER_0_14_77
*466 FILLER_0_14_83
*467 FILLER_0_14_85
*468 FILLER_0_14_97
*469 FILLER_0_15_105
*470 FILLER_0_15_111
*471 FILLER_0_15_113
*472 FILLER_0_15_125
*473 FILLER_0_15_137
*474 FILLER_0_15_149
*475 FILLER_0_15_15
*476 FILLER_0_15_161
*477 FILLER_0_15_167
*478 FILLER_0_15_169
*479 FILLER_0_15_181
*480 FILLER_0_15_193
*481 FILLER_0_15_205
*482 FILLER_0_15_217
*483 FILLER_0_15_223
*484 FILLER_0_15_225
*485 FILLER_0_15_237
*486 FILLER_0_15_249
*487 FILLER_0_15_261
*488 FILLER_0_15_27
*489 FILLER_0_15_273
*490 FILLER_0_15_279
*491 FILLER_0_15_281
*492 FILLER_0_15_293
*493 FILLER_0_15_3
*494 FILLER_0_15_305
*495 FILLER_0_15_317
*496 FILLER_0_15_329
*497 FILLER_0_15_39
*498 FILLER_0_15_51
*499 FILLER_0_15_55
*500 FILLER_0_15_57
*501 FILLER_0_15_69
*502 FILLER_0_15_81
*503 FILLER_0_15_93
*504 FILLER_0_16_109
*505 FILLER_0_16_121
*506 FILLER_0_16_133
*507 FILLER_0_16_139
*508 FILLER_0_16_141
*509 FILLER_0_16_15
*510 FILLER_0_16_153
*511 FILLER_0_16_165
*512 FILLER_0_16_177
*513 FILLER_0_16_189
*514 FILLER_0_16_195
*515 FILLER_0_16_197
*516 FILLER_0_16_209
*517 FILLER_0_16_221
*518 FILLER_0_16_233
*519 FILLER_0_16_245
*520 FILLER_0_16_251
*521 FILLER_0_16_253
*522 FILLER_0_16_265
*523 FILLER_0_16_27
*524 FILLER_0_16_277
*525 FILLER_0_16_289
*526 FILLER_0_16_29
*527 FILLER_0_16_3
*528 FILLER_0_16_301
*529 FILLER_0_16_307
*530 FILLER_0_16_309
*531 FILLER_0_16_321
*532 FILLER_0_16_333
*533 FILLER_0_16_41
*534 FILLER_0_16_53
*535 FILLER_0_16_65
*536 FILLER_0_16_77
*537 FILLER_0_16_83
*538 FILLER_0_16_85
*539 FILLER_0_16_97
*540 FILLER_0_17_105
*541 FILLER_0_17_111
*542 FILLER_0_17_113
*543 FILLER_0_17_125
*544 FILLER_0_17_137
*545 FILLER_0_17_149
*546 FILLER_0_17_15
*547 FILLER_0_17_161
*548 FILLER_0_17_167
*549 FILLER_0_17_169
*550 FILLER_0_17_181
*551 FILLER_0_17_193
*552 FILLER_0_17_205
*553 FILLER_0_17_217
*554 FILLER_0_17_223
*555 FILLER_0_17_225
*556 FILLER_0_17_237
*557 FILLER_0_17_249
*558 FILLER_0_17_261
*559 FILLER_0_17_27
*560 FILLER_0_17_273
*561 FILLER_0_17_279
*562 FILLER_0_17_281
*563 FILLER_0_17_293
*564 FILLER_0_17_3
*565 FILLER_0_17_305
*566 FILLER_0_17_317
*567 FILLER_0_17_329
*568 FILLER_0_17_39
*569 FILLER_0_17_51
*570 FILLER_0_17_55
*571 FILLER_0_17_57
*572 FILLER_0_17_69
*573 FILLER_0_17_81
*574 FILLER_0_17_93
*575 FILLER_0_18_109
*576 FILLER_0_18_121
*577 FILLER_0_18_133
*578 FILLER_0_18_139
*579 FILLER_0_18_141
*580 FILLER_0_18_15
*581 FILLER_0_18_153
*582 FILLER_0_18_165
*583 FILLER_0_18_177
*584 FILLER_0_18_189
*585 FILLER_0_18_195
*586 FILLER_0_18_197
*587 FILLER_0_18_209
*588 FILLER_0_18_221
*589 FILLER_0_18_233
*590 FILLER_0_18_245
*591 FILLER_0_18_251
*592 FILLER_0_18_253
*593 FILLER_0_18_265
*594 FILLER_0_18_27
*595 FILLER_0_18_277
*596 FILLER_0_18_289
*597 FILLER_0_18_29
*598 FILLER_0_18_3
*599 FILLER_0_18_301
*600 FILLER_0_18_307
*601 FILLER_0_18_309
*602 FILLER_0_18_321
*603 FILLER_0_18_333
*604 FILLER_0_18_41
*605 FILLER_0_18_53
*606 FILLER_0_18_65
*607 FILLER_0_18_77
*608 FILLER_0_18_83
*609 FILLER_0_18_85
*610 FILLER_0_18_97
*611 FILLER_0_19_105
*612 FILLER_0_19_111
*613 FILLER_0_19_113
*614 FILLER_0_19_125
*615 FILLER_0_19_137
*616 FILLER_0_19_149
*617 FILLER_0_19_15
*618 FILLER_0_19_161
*619 FILLER_0_19_167
*620 FILLER_0_19_169
*621 FILLER_0_19_181
*622 FILLER_0_19_193
*623 FILLER_0_19_205
*624 FILLER_0_19_217
*625 FILLER_0_19_223
*626 FILLER_0_19_225
*627 FILLER_0_19_237
*628 FILLER_0_19_249
*629 FILLER_0_19_261
*630 FILLER_0_19_27
*631 FILLER_0_19_273
*632 FILLER_0_19_279
*633 FILLER_0_19_281
*634 FILLER_0_19_293
*635 FILLER_0_19_3
*636 FILLER_0_19_305
*637 FILLER_0_19_317
*638 FILLER_0_19_329
*639 FILLER_0_19_39
*640 FILLER_0_19_51
*641 FILLER_0_19_55
*642 FILLER_0_19_57
*643 FILLER_0_19_69
*644 FILLER_0_19_81
*645 FILLER_0_19_93
*646 FILLER_0_1_105
*647 FILLER_0_1_111
*648 FILLER_0_1_113
*649 FILLER_0_1_125
*650 FILLER_0_1_137
*651 FILLER_0_1_149
*652 FILLER_0_1_15
*653 FILLER_0_1_161
*654 FILLER_0_1_167
*655 FILLER_0_1_169
*656 FILLER_0_1_181
*657 FILLER_0_1_193
*658 FILLER_0_1_205
*659 FILLER_0_1_217
*660 FILLER_0_1_223
*661 FILLER_0_1_225
*662 FILLER_0_1_237
*663 FILLER_0_1_249
*664 FILLER_0_1_261
*665 FILLER_0_1_27
*666 FILLER_0_1_273
*667 FILLER_0_1_279
*668 FILLER_0_1_281
*669 FILLER_0_1_293
*670 FILLER_0_1_3
*671 FILLER_0_1_305
*672 FILLER_0_1_317
*673 FILLER_0_1_329
*674 FILLER_0_1_39
*675 FILLER_0_1_51
*676 FILLER_0_1_55
*677 FILLER_0_1_57
*678 FILLER_0_1_69
*679 FILLER_0_1_81
*680 FILLER_0_1_93
*681 FILLER_0_20_109
*682 FILLER_0_20_121
*683 FILLER_0_20_133
*684 FILLER_0_20_139
*685 FILLER_0_20_141
*686 FILLER_0_20_15
*687 FILLER_0_20_153
*688 FILLER_0_20_165
*689 FILLER_0_20_177
*690 FILLER_0_20_189
*691 FILLER_0_20_195
*692 FILLER_0_20_197
*693 FILLER_0_20_209
*694 FILLER_0_20_221
*695 FILLER_0_20_233
*696 FILLER_0_20_245
*697 FILLER_0_20_251
*698 FILLER_0_20_253
*699 FILLER_0_20_265
*700 FILLER_0_20_27
*701 FILLER_0_20_277
*702 FILLER_0_20_289
*703 FILLER_0_20_29
*704 FILLER_0_20_3
*705 FILLER_0_20_301
*706 FILLER_0_20_307
*707 FILLER_0_20_309
*708 FILLER_0_20_321
*709 FILLER_0_20_333
*710 FILLER_0_20_41
*711 FILLER_0_20_53
*712 FILLER_0_20_65
*713 FILLER_0_20_77
*714 FILLER_0_20_83
*715 FILLER_0_20_85
*716 FILLER_0_20_97
*717 FILLER_0_21_105
*718 FILLER_0_21_111
*719 FILLER_0_21_113
*720 FILLER_0_21_125
*721 FILLER_0_21_137
*722 FILLER_0_21_149
*723 FILLER_0_21_15
*724 FILLER_0_21_161
*725 FILLER_0_21_167
*726 FILLER_0_21_169
*727 FILLER_0_21_181
*728 FILLER_0_21_193
*729 FILLER_0_21_205
*730 FILLER_0_21_217
*731 FILLER_0_21_223
*732 FILLER_0_21_225
*733 FILLER_0_21_237
*734 FILLER_0_21_249
*735 FILLER_0_21_261
*736 FILLER_0_21_27
*737 FILLER_0_21_273
*738 FILLER_0_21_279
*739 FILLER_0_21_281
*740 FILLER_0_21_293
*741 FILLER_0_21_3
*742 FILLER_0_21_305
*743 FILLER_0_21_317
*744 FILLER_0_21_329
*745 FILLER_0_21_39
*746 FILLER_0_21_51
*747 FILLER_0_21_55
*748 FILLER_0_21_57
*749 FILLER_0_21_69
*750 FILLER_0_21_81
*751 FILLER_0_21_93
*752 FILLER_0_22_109
*753 FILLER_0_22_121
*754 FILLER_0_22_133
*755 FILLER_0_22_139
*756 FILLER_0_22_141
*757 FILLER_0_22_15
*758 FILLER_0_22_153
*759 FILLER_0_22_165
*760 FILLER_0_22_177
*761 FILLER_0_22_189
*762 FILLER_0_22_195
*763 FILLER_0_22_197
*764 FILLER_0_22_209
*765 FILLER_0_22_221
*766 FILLER_0_22_233
*767 FILLER_0_22_245
*768 FILLER_0_22_251
*769 FILLER_0_22_253
*770 FILLER_0_22_265
*771 FILLER_0_22_27
*772 FILLER_0_22_277
*773 FILLER_0_22_289
*774 FILLER_0_22_29
*775 FILLER_0_22_3
*776 FILLER_0_22_301
*777 FILLER_0_22_307
*778 FILLER_0_22_309
*779 FILLER_0_22_321
*780 FILLER_0_22_333
*781 FILLER_0_22_41
*782 FILLER_0_22_53
*783 FILLER_0_22_65
*784 FILLER_0_22_77
*785 FILLER_0_22_83
*786 FILLER_0_22_85
*787 FILLER_0_22_97
*788 FILLER_0_23_105
*789 FILLER_0_23_111
*790 FILLER_0_23_113
*791 FILLER_0_23_125
*792 FILLER_0_23_137
*793 FILLER_0_23_149
*794 FILLER_0_23_15
*795 FILLER_0_23_161
*796 FILLER_0_23_167
*797 FILLER_0_23_169
*798 FILLER_0_23_181
*799 FILLER_0_23_193
*800 FILLER_0_23_202
*801 FILLER_0_23_214
*802 FILLER_0_23_222
*803 FILLER_0_23_225
*804 FILLER_0_23_237
*805 FILLER_0_23_249
*806 FILLER_0_23_261
*807 FILLER_0_23_27
*808 FILLER_0_23_273
*809 FILLER_0_23_279
*810 FILLER_0_23_281
*811 FILLER_0_23_293
*812 FILLER_0_23_3
*813 FILLER_0_23_305
*814 FILLER_0_23_317
*815 FILLER_0_23_329
*816 FILLER_0_23_39
*817 FILLER_0_23_51
*818 FILLER_0_23_55
*819 FILLER_0_23_57
*820 FILLER_0_23_69
*821 FILLER_0_23_81
*822 FILLER_0_23_93
*823 FILLER_0_24_109
*824 FILLER_0_24_121
*825 FILLER_0_24_133
*826 FILLER_0_24_139
*827 FILLER_0_24_141
*828 FILLER_0_24_15
*829 FILLER_0_24_153
*830 FILLER_0_24_165
*831 FILLER_0_24_177
*832 FILLER_0_24_189
*833 FILLER_0_24_213
*834 FILLER_0_24_225
*835 FILLER_0_24_237
*836 FILLER_0_24_249
*837 FILLER_0_24_253
*838 FILLER_0_24_265
*839 FILLER_0_24_27
*840 FILLER_0_24_277
*841 FILLER_0_24_289
*842 FILLER_0_24_29
*843 FILLER_0_24_3
*844 FILLER_0_24_301
*845 FILLER_0_24_307
*846 FILLER_0_24_309
*847 FILLER_0_24_321
*848 FILLER_0_24_333
*849 FILLER_0_24_41
*850 FILLER_0_24_53
*851 FILLER_0_24_65
*852 FILLER_0_24_77
*853 FILLER_0_24_83
*854 FILLER_0_24_85
*855 FILLER_0_24_97
*856 FILLER_0_25_105
*857 FILLER_0_25_111
*858 FILLER_0_25_113
*859 FILLER_0_25_132
*860 FILLER_0_25_144
*861 FILLER_0_25_15
*862 FILLER_0_25_156
*863 FILLER_0_25_167
*864 FILLER_0_25_169
*865 FILLER_0_25_181
*866 FILLER_0_25_189
*867 FILLER_0_25_230
*868 FILLER_0_25_242
*869 FILLER_0_25_254
*870 FILLER_0_25_266
*871 FILLER_0_25_27
*872 FILLER_0_25_278
*873 FILLER_0_25_281
*874 FILLER_0_25_293
*875 FILLER_0_25_3
*876 FILLER_0_25_305
*877 FILLER_0_25_317
*878 FILLER_0_25_329
*879 FILLER_0_25_39
*880 FILLER_0_25_51
*881 FILLER_0_25_55
*882 FILLER_0_25_57
*883 FILLER_0_25_69
*884 FILLER_0_25_81
*885 FILLER_0_25_93
*886 FILLER_0_26_109
*887 FILLER_0_26_138
*888 FILLER_0_26_141
*889 FILLER_0_26_15
*890 FILLER_0_26_153
*891 FILLER_0_26_177
*892 FILLER_0_26_189
*893 FILLER_0_26_229
*894 FILLER_0_26_241
*895 FILLER_0_26_249
*896 FILLER_0_26_253
*897 FILLER_0_26_265
*898 FILLER_0_26_27
*899 FILLER_0_26_277
*900 FILLER_0_26_289
*901 FILLER_0_26_29
*902 FILLER_0_26_3
*903 FILLER_0_26_301
*904 FILLER_0_26_307
*905 FILLER_0_26_309
*906 FILLER_0_26_321
*907 FILLER_0_26_333
*908 FILLER_0_26_41
*909 FILLER_0_26_53
*910 FILLER_0_26_65
*911 FILLER_0_26_77
*912 FILLER_0_26_83
*913 FILLER_0_26_85
*914 FILLER_0_26_97
*915 FILLER_0_27_105
*916 FILLER_0_27_113
*917 FILLER_0_27_147
*918 FILLER_0_27_15
*919 FILLER_0_27_159
*920 FILLER_0_27_185
*921 FILLER_0_27_197
*922 FILLER_0_27_219
*923 FILLER_0_27_223
*924 FILLER_0_27_239
*925 FILLER_0_27_251
*926 FILLER_0_27_263
*927 FILLER_0_27_27
*928 FILLER_0_27_275
*929 FILLER_0_27_279
*930 FILLER_0_27_281
*931 FILLER_0_27_293
*932 FILLER_0_27_3
*933 FILLER_0_27_305
*934 FILLER_0_27_317
*935 FILLER_0_27_329
*936 FILLER_0_27_39
*937 FILLER_0_27_51
*938 FILLER_0_27_55
*939 FILLER_0_27_57
*940 FILLER_0_27_69
*941 FILLER_0_27_81
*942 FILLER_0_27_93
*943 FILLER_0_28_109
*944 FILLER_0_28_117
*945 FILLER_0_28_125
*946 FILLER_0_28_138
*947 FILLER_0_28_141
*948 FILLER_0_28_15
*949 FILLER_0_28_153
*950 FILLER_0_28_165
*951 FILLER_0_28_182
*952 FILLER_0_28_194
*953 FILLER_0_28_203
*954 FILLER_0_28_208
*955 FILLER_0_28_235
*956 FILLER_0_28_247
*957 FILLER_0_28_251
*958 FILLER_0_28_253
*959 FILLER_0_28_265
*960 FILLER_0_28_27
*961 FILLER_0_28_277
*962 FILLER_0_28_289
*963 FILLER_0_28_29
*964 FILLER_0_28_3
*965 FILLER_0_28_301
*966 FILLER_0_28_307
*967 FILLER_0_28_309
*968 FILLER_0_28_321
*969 FILLER_0_28_333
*970 FILLER_0_28_41
*971 FILLER_0_28_53
*972 FILLER_0_28_65
*973 FILLER_0_28_77
*974 FILLER_0_28_83
*975 FILLER_0_28_85
*976 FILLER_0_28_97
*977 FILLER_0_29_105
*978 FILLER_0_29_111
*979 FILLER_0_29_126
*980 FILLER_0_29_138
*981 FILLER_0_29_15
*982 FILLER_0_29_150
*983 FILLER_0_29_162
*984 FILLER_0_29_205
*985 FILLER_0_29_225
*986 FILLER_0_29_245
*987 FILLER_0_29_253
*988 FILLER_0_29_265
*989 FILLER_0_29_27
*990 FILLER_0_29_297
*991 FILLER_0_29_3
*992 FILLER_0_29_309
*993 FILLER_0_29_321
*994 FILLER_0_29_333
*995 FILLER_0_29_39
*996 FILLER_0_29_51
*997 FILLER_0_29_55
*998 FILLER_0_29_57
*999 FILLER_0_29_69
*1000 FILLER_0_29_81
*1001 FILLER_0_29_93
*1002 FILLER_0_2_109
*1003 FILLER_0_2_121
*1004 FILLER_0_2_133
*1005 FILLER_0_2_139
*1006 FILLER_0_2_141
*1007 FILLER_0_2_15
*1008 FILLER_0_2_153
*1009 FILLER_0_2_165
*1010 FILLER_0_2_177
*1011 FILLER_0_2_189
*1012 FILLER_0_2_195
*1013 FILLER_0_2_197
*1014 FILLER_0_2_209
*1015 FILLER_0_2_221
*1016 FILLER_0_2_233
*1017 FILLER_0_2_245
*1018 FILLER_0_2_251
*1019 FILLER_0_2_253
*1020 FILLER_0_2_265
*1021 FILLER_0_2_27
*1022 FILLER_0_2_277
*1023 FILLER_0_2_289
*1024 FILLER_0_2_29
*1025 FILLER_0_2_3
*1026 FILLER_0_2_301
*1027 FILLER_0_2_307
*1028 FILLER_0_2_309
*1029 FILLER_0_2_321
*1030 FILLER_0_2_333
*1031 FILLER_0_2_41
*1032 FILLER_0_2_53
*1033 FILLER_0_2_65
*1034 FILLER_0_2_77
*1035 FILLER_0_2_83
*1036 FILLER_0_2_85
*1037 FILLER_0_2_97
*1038 FILLER_0_30_105
*1039 FILLER_0_30_137
*1040 FILLER_0_30_145
*1041 FILLER_0_30_15
*1042 FILLER_0_30_157
*1043 FILLER_0_30_176
*1044 FILLER_0_30_194
*1045 FILLER_0_30_201
*1046 FILLER_0_30_209
*1047 FILLER_0_30_240
*1048 FILLER_0_30_248
*1049 FILLER_0_30_27
*1050 FILLER_0_30_29
*1051 FILLER_0_30_298
*1052 FILLER_0_30_3
*1053 FILLER_0_30_306
*1054 FILLER_0_30_316
*1055 FILLER_0_30_328
*1056 FILLER_0_30_334
*1057 FILLER_0_30_41
*1058 FILLER_0_30_53
*1059 FILLER_0_30_65
*1060 FILLER_0_30_77
*1061 FILLER_0_30_83
*1062 FILLER_0_30_85
*1063 FILLER_0_30_97
*1064 FILLER_0_31_137
*1065 FILLER_0_31_143
*1066 FILLER_0_31_15
*1067 FILLER_0_31_160
*1068 FILLER_0_31_206
*1069 FILLER_0_31_217
*1070 FILLER_0_31_223
*1071 FILLER_0_31_239
*1072 FILLER_0_31_250
*1073 FILLER_0_31_258
*1074 FILLER_0_31_268
*1075 FILLER_0_31_27
*1076 FILLER_0_31_278
*1077 FILLER_0_31_288
*1078 FILLER_0_31_3
*1079 FILLER_0_31_300
*1080 FILLER_0_31_312
*1081 FILLER_0_31_324
*1082 FILLER_0_31_332
*1083 FILLER_0_31_39
*1084 FILLER_0_31_51
*1085 FILLER_0_31_55
*1086 FILLER_0_31_57
*1087 FILLER_0_31_69
*1088 FILLER_0_31_81
*1089 FILLER_0_31_93
*1090 FILLER_0_32_105
*1091 FILLER_0_32_132
*1092 FILLER_0_32_15
*1093 FILLER_0_32_171
*1094 FILLER_0_32_194
*1095 FILLER_0_32_216
*1096 FILLER_0_32_240
*1097 FILLER_0_32_251
*1098 FILLER_0_32_258
*1099 FILLER_0_32_262
*1100 FILLER_0_32_268
*1101 FILLER_0_32_27
*1102 FILLER_0_32_278
*1103 FILLER_0_32_29
*1104 FILLER_0_32_292
*1105 FILLER_0_32_3
*1106 FILLER_0_32_300
*1107 FILLER_0_32_316
*1108 FILLER_0_32_328
*1109 FILLER_0_32_334
*1110 FILLER_0_32_41
*1111 FILLER_0_32_53
*1112 FILLER_0_32_65
*1113 FILLER_0_32_77
*1114 FILLER_0_32_83
*1115 FILLER_0_32_85
*1116 FILLER_0_32_97
*1117 FILLER_0_33_105
*1118 FILLER_0_33_111
*1119 FILLER_0_33_113
*1120 FILLER_0_33_125
*1121 FILLER_0_33_137
*1122 FILLER_0_33_145
*1123 FILLER_0_33_15
*1124 FILLER_0_33_158
*1125 FILLER_0_33_167
*1126 FILLER_0_33_169
*1127 FILLER_0_33_178
*1128 FILLER_0_33_196
*1129 FILLER_0_33_208
*1130 FILLER_0_33_216
*1131 FILLER_0_33_221
*1132 FILLER_0_33_240
*1133 FILLER_0_33_252
*1134 FILLER_0_33_256
*1135 FILLER_0_33_268
*1136 FILLER_0_33_27
*1137 FILLER_0_33_281
*1138 FILLER_0_33_294
*1139 FILLER_0_33_3
*1140 FILLER_0_33_325
*1141 FILLER_0_33_333
*1142 FILLER_0_33_39
*1143 FILLER_0_33_51
*1144 FILLER_0_33_55
*1145 FILLER_0_33_57
*1146 FILLER_0_33_69
*1147 FILLER_0_33_81
*1148 FILLER_0_33_93
*1149 FILLER_0_34_109
*1150 FILLER_0_34_121
*1151 FILLER_0_34_133
*1152 FILLER_0_34_15
*1153 FILLER_0_34_158
*1154 FILLER_0_34_173
*1155 FILLER_0_34_195
*1156 FILLER_0_34_206
*1157 FILLER_0_34_218
*1158 FILLER_0_34_230
*1159 FILLER_0_34_242
*1160 FILLER_0_34_251
*1161 FILLER_0_34_258
*1162 FILLER_0_34_264
*1163 FILLER_0_34_27
*1164 FILLER_0_34_276
*1165 FILLER_0_34_284
*1166 FILLER_0_34_29
*1167 FILLER_0_34_293
*1168 FILLER_0_34_3
*1169 FILLER_0_34_301
*1170 FILLER_0_34_307
*1171 FILLER_0_34_313
*1172 FILLER_0_34_325
*1173 FILLER_0_34_333
*1174 FILLER_0_34_41
*1175 FILLER_0_34_53
*1176 FILLER_0_34_65
*1177 FILLER_0_34_77
*1178 FILLER_0_34_83
*1179 FILLER_0_34_85
*1180 FILLER_0_34_97
*1181 FILLER_0_35_105
*1182 FILLER_0_35_111
*1183 FILLER_0_35_113
*1184 FILLER_0_35_125
*1185 FILLER_0_35_15
*1186 FILLER_0_35_157
*1187 FILLER_0_35_165
*1188 FILLER_0_35_169
*1189 FILLER_0_35_189
*1190 FILLER_0_35_201
*1191 FILLER_0_35_210
*1192 FILLER_0_35_236
*1193 FILLER_0_35_244
*1194 FILLER_0_35_27
*1195 FILLER_0_35_271
*1196 FILLER_0_35_279
*1197 FILLER_0_35_281
*1198 FILLER_0_35_293
*1199 FILLER_0_35_3
*1200 FILLER_0_35_308
*1201 FILLER_0_35_321
*1202 FILLER_0_35_333
*1203 FILLER_0_35_39
*1204 FILLER_0_35_51
*1205 FILLER_0_35_55
*1206 FILLER_0_35_57
*1207 FILLER_0_35_69
*1208 FILLER_0_35_81
*1209 FILLER_0_35_93
*1210 FILLER_0_36_109
*1211 FILLER_0_36_121
*1212 FILLER_0_36_133
*1213 FILLER_0_36_15
*1214 FILLER_0_36_166
*1215 FILLER_0_36_197
*1216 FILLER_0_36_209
*1217 FILLER_0_36_231
*1218 FILLER_0_36_239
*1219 FILLER_0_36_253
*1220 FILLER_0_36_27
*1221 FILLER_0_36_273
*1222 FILLER_0_36_285
*1223 FILLER_0_36_289
*1224 FILLER_0_36_29
*1225 FILLER_0_36_3
*1226 FILLER_0_36_305
*1227 FILLER_0_36_315
*1228 FILLER_0_36_323
*1229 FILLER_0_36_41
*1230 FILLER_0_36_53
*1231 FILLER_0_36_65
*1232 FILLER_0_36_77
*1233 FILLER_0_36_83
*1234 FILLER_0_36_85
*1235 FILLER_0_36_97
*1236 FILLER_0_37_105
*1237 FILLER_0_37_111
*1238 FILLER_0_37_113
*1239 FILLER_0_37_125
*1240 FILLER_0_37_137
*1241 FILLER_0_37_15
*1242 FILLER_0_37_166
*1243 FILLER_0_37_169
*1244 FILLER_0_37_173
*1245 FILLER_0_37_236
*1246 FILLER_0_37_240
*1247 FILLER_0_37_27
*1248 FILLER_0_37_275
*1249 FILLER_0_37_279
*1250 FILLER_0_37_281
*1251 FILLER_0_37_3
*1252 FILLER_0_37_303
*1253 FILLER_0_37_328
*1254 FILLER_0_37_334
*1255 FILLER_0_37_39
*1256 FILLER_0_37_51
*1257 FILLER_0_37_55
*1258 FILLER_0_37_57
*1259 FILLER_0_37_69
*1260 FILLER_0_37_81
*1261 FILLER_0_37_93
*1262 FILLER_0_38_10
*1263 FILLER_0_38_102
*1264 FILLER_0_38_106
*1265 FILLER_0_38_110
*1266 FILLER_0_38_113
*1267 FILLER_0_38_118
*1268 FILLER_0_38_122
*1269 FILLER_0_38_126
*1270 FILLER_0_38_130
*1271 FILLER_0_38_134
*1272 FILLER_0_38_14
*1273 FILLER_0_38_144
*1274 FILLER_0_38_156
*1275 FILLER_0_38_169
*1276 FILLER_0_38_18
*1277 FILLER_0_38_181
*1278 FILLER_0_38_193
*1279 FILLER_0_38_197
*1280 FILLER_0_38_209
*1281 FILLER_0_38_22
*1282 FILLER_0_38_221
*1283 FILLER_0_38_225
*1284 FILLER_0_38_237
*1285 FILLER_0_38_249
*1286 FILLER_0_38_253
*1287 FILLER_0_38_266
*1288 FILLER_0_38_270
*1289 FILLER_0_38_274
*1290 FILLER_0_38_279
*1291 FILLER_0_38_281
*1292 FILLER_0_38_287
*1293 FILLER_0_38_304
*1294 FILLER_0_38_309
*1295 FILLER_0_38_32
*1296 FILLER_0_38_321
*1297 FILLER_0_38_326
*1298 FILLER_0_38_334
*1299 FILLER_0_38_38
*1300 FILLER_0_38_42
*1301 FILLER_0_38_46
*1302 FILLER_0_38_50
*1303 FILLER_0_38_54
*1304 FILLER_0_38_57
*1305 FILLER_0_38_6
*1306 FILLER_0_38_62
*1307 FILLER_0_38_66
*1308 FILLER_0_38_70
*1309 FILLER_0_38_74
*1310 FILLER_0_38_78
*1311 FILLER_0_38_88
*1312 FILLER_0_38_94
*1313 FILLER_0_38_98
*1314 FILLER_0_3_105
*1315 FILLER_0_3_111
*1316 FILLER_0_3_113
*1317 FILLER_0_3_125
*1318 FILLER_0_3_137
*1319 FILLER_0_3_149
*1320 FILLER_0_3_15
*1321 FILLER_0_3_161
*1322 FILLER_0_3_167
*1323 FILLER_0_3_169
*1324 FILLER_0_3_181
*1325 FILLER_0_3_193
*1326 FILLER_0_3_205
*1327 FILLER_0_3_217
*1328 FILLER_0_3_223
*1329 FILLER_0_3_225
*1330 FILLER_0_3_237
*1331 FILLER_0_3_249
*1332 FILLER_0_3_261
*1333 FILLER_0_3_27
*1334 FILLER_0_3_273
*1335 FILLER_0_3_279
*1336 FILLER_0_3_281
*1337 FILLER_0_3_293
*1338 FILLER_0_3_3
*1339 FILLER_0_3_305
*1340 FILLER_0_3_317
*1341 FILLER_0_3_329
*1342 FILLER_0_3_39
*1343 FILLER_0_3_51
*1344 FILLER_0_3_55
*1345 FILLER_0_3_57
*1346 FILLER_0_3_69
*1347 FILLER_0_3_81
*1348 FILLER_0_3_93
*1349 FILLER_0_4_109
*1350 FILLER_0_4_121
*1351 FILLER_0_4_133
*1352 FILLER_0_4_139
*1353 FILLER_0_4_141
*1354 FILLER_0_4_15
*1355 FILLER_0_4_153
*1356 FILLER_0_4_165
*1357 FILLER_0_4_177
*1358 FILLER_0_4_189
*1359 FILLER_0_4_195
*1360 FILLER_0_4_197
*1361 FILLER_0_4_209
*1362 FILLER_0_4_221
*1363 FILLER_0_4_233
*1364 FILLER_0_4_245
*1365 FILLER_0_4_251
*1366 FILLER_0_4_253
*1367 FILLER_0_4_265
*1368 FILLER_0_4_27
*1369 FILLER_0_4_277
*1370 FILLER_0_4_289
*1371 FILLER_0_4_29
*1372 FILLER_0_4_3
*1373 FILLER_0_4_301
*1374 FILLER_0_4_307
*1375 FILLER_0_4_309
*1376 FILLER_0_4_321
*1377 FILLER_0_4_333
*1378 FILLER_0_4_41
*1379 FILLER_0_4_53
*1380 FILLER_0_4_65
*1381 FILLER_0_4_77
*1382 FILLER_0_4_83
*1383 FILLER_0_4_85
*1384 FILLER_0_4_97
*1385 FILLER_0_5_105
*1386 FILLER_0_5_111
*1387 FILLER_0_5_113
*1388 FILLER_0_5_125
*1389 FILLER_0_5_137
*1390 FILLER_0_5_149
*1391 FILLER_0_5_15
*1392 FILLER_0_5_161
*1393 FILLER_0_5_167
*1394 FILLER_0_5_169
*1395 FILLER_0_5_181
*1396 FILLER_0_5_193
*1397 FILLER_0_5_205
*1398 FILLER_0_5_217
*1399 FILLER_0_5_223
*1400 FILLER_0_5_225
*1401 FILLER_0_5_237
*1402 FILLER_0_5_249
*1403 FILLER_0_5_261
*1404 FILLER_0_5_27
*1405 FILLER_0_5_273
*1406 FILLER_0_5_279
*1407 FILLER_0_5_281
*1408 FILLER_0_5_293
*1409 FILLER_0_5_3
*1410 FILLER_0_5_305
*1411 FILLER_0_5_317
*1412 FILLER_0_5_329
*1413 FILLER_0_5_39
*1414 FILLER_0_5_51
*1415 FILLER_0_5_55
*1416 FILLER_0_5_57
*1417 FILLER_0_5_69
*1418 FILLER_0_5_81
*1419 FILLER_0_5_93
*1420 FILLER_0_6_109
*1421 FILLER_0_6_121
*1422 FILLER_0_6_133
*1423 FILLER_0_6_139
*1424 FILLER_0_6_141
*1425 FILLER_0_6_15
*1426 FILLER_0_6_153
*1427 FILLER_0_6_165
*1428 FILLER_0_6_177
*1429 FILLER_0_6_189
*1430 FILLER_0_6_195
*1431 FILLER_0_6_197
*1432 FILLER_0_6_209
*1433 FILLER_0_6_221
*1434 FILLER_0_6_233
*1435 FILLER_0_6_245
*1436 FILLER_0_6_251
*1437 FILLER_0_6_253
*1438 FILLER_0_6_265
*1439 FILLER_0_6_27
*1440 FILLER_0_6_277
*1441 FILLER_0_6_289
*1442 FILLER_0_6_29
*1443 FILLER_0_6_3
*1444 FILLER_0_6_301
*1445 FILLER_0_6_307
*1446 FILLER_0_6_309
*1447 FILLER_0_6_321
*1448 FILLER_0_6_333
*1449 FILLER_0_6_41
*1450 FILLER_0_6_53
*1451 FILLER_0_6_65
*1452 FILLER_0_6_77
*1453 FILLER_0_6_83
*1454 FILLER_0_6_85
*1455 FILLER_0_6_97
*1456 FILLER_0_7_105
*1457 FILLER_0_7_111
*1458 FILLER_0_7_113
*1459 FILLER_0_7_125
*1460 FILLER_0_7_137
*1461 FILLER_0_7_149
*1462 FILLER_0_7_15
*1463 FILLER_0_7_161
*1464 FILLER_0_7_167
*1465 FILLER_0_7_169
*1466 FILLER_0_7_181
*1467 FILLER_0_7_193
*1468 FILLER_0_7_205
*1469 FILLER_0_7_217
*1470 FILLER_0_7_223
*1471 FILLER_0_7_225
*1472 FILLER_0_7_237
*1473 FILLER_0_7_249
*1474 FILLER_0_7_261
*1475 FILLER_0_7_27
*1476 FILLER_0_7_273
*1477 FILLER_0_7_279
*1478 FILLER_0_7_281
*1479 FILLER_0_7_293
*1480 FILLER_0_7_3
*1481 FILLER_0_7_305
*1482 FILLER_0_7_317
*1483 FILLER_0_7_329
*1484 FILLER_0_7_39
*1485 FILLER_0_7_51
*1486 FILLER_0_7_55
*1487 FILLER_0_7_57
*1488 FILLER_0_7_69
*1489 FILLER_0_7_81
*1490 FILLER_0_7_93
*1491 FILLER_0_8_109
*1492 FILLER_0_8_121
*1493 FILLER_0_8_133
*1494 FILLER_0_8_139
*1495 FILLER_0_8_141
*1496 FILLER_0_8_15
*1497 FILLER_0_8_153
*1498 FILLER_0_8_165
*1499 FILLER_0_8_177
*1500 FILLER_0_8_189
*1501 FILLER_0_8_195
*1502 FILLER_0_8_197
*1503 FILLER_0_8_209
*1504 FILLER_0_8_221
*1505 FILLER_0_8_233
*1506 FILLER_0_8_245
*1507 FILLER_0_8_251
*1508 FILLER_0_8_253
*1509 FILLER_0_8_265
*1510 FILLER_0_8_27
*1511 FILLER_0_8_277
*1512 FILLER_0_8_289
*1513 FILLER_0_8_29
*1514 FILLER_0_8_3
*1515 FILLER_0_8_301
*1516 FILLER_0_8_307
*1517 FILLER_0_8_309
*1518 FILLER_0_8_321
*1519 FILLER_0_8_333
*1520 FILLER_0_8_41
*1521 FILLER_0_8_53
*1522 FILLER_0_8_65
*1523 FILLER_0_8_77
*1524 FILLER_0_8_83
*1525 FILLER_0_8_85
*1526 FILLER_0_8_97
*1527 FILLER_0_9_105
*1528 FILLER_0_9_111
*1529 FILLER_0_9_113
*1530 FILLER_0_9_125
*1531 FILLER_0_9_137
*1532 FILLER_0_9_149
*1533 FILLER_0_9_15
*1534 FILLER_0_9_161
*1535 FILLER_0_9_167
*1536 FILLER_0_9_169
*1537 FILLER_0_9_181
*1538 FILLER_0_9_193
*1539 FILLER_0_9_205
*1540 FILLER_0_9_217
*1541 FILLER_0_9_223
*1542 FILLER_0_9_225