*SPEF "ieee 1481-1999"
*DESIGN "tt_um_disp1"
*DATE "15:21:22 Saturday April 13, 2024"
*VENDOR "The OpenROAD Project"
*PROGRAM "OpenROAD"
*VERSION "0889970d1790a2617e69f253221b8bd7626e51dc"
*DESIGN_FLOW "NAME_SCOPE LOCAL" "PIN_CAP NONE"
*DIVIDER /
*DELIMITER :
*BUS_DELIMITER []
*T_UNIT 1 NS
*C_UNIT 1 PF
*R_UNIT 1 OHM
*L_UNIT 1 HENRY

*NAME_MAP
*3 clk
*4 ena
*5 rst_n
*6 ui_in[0]
*7 ui_in[1]
*8 ui_in[2]
*9 ui_in[3]
*10 ui_in[4]
*11 ui_in[5]
*12 ui_in[6]
*13 ui_in[7]
*14 uio_in[0]
*15 uio_in[1]
*16 uio_in[2]
*17 uio_in[3]
*18 uio_in[4]
*19 uio_in[5]
*20 uio_in[6]
*21 uio_in[7]
*22 net2
*23 net3
*24 net4
*25 net5
*26 net6
*27 net7
*28 net8
*29 net9
*30 net10
*31 net11
*32 net12
*33 net13
*34 net14
*35 net15
*36 net16
*37 net17
*38 uo_out[0]
*39 uo_out[1]
*40 uo_out[2]
*41 uo_out[3]
*42 uo_out[4]
*43 uo_out[5]
*44 net18
*45 net19
*46 E
*47 _000_
*48 _001_
*49 _002_
*50 _003_
*51 _004_
*52 _005_
*53 _006_
*54 _007_
*55 _008_
*56 _009_
*57 _010_
*58 _011_
*59 _012_
*60 _013_
*61 _014_
*62 _015_
*63 _016_
*64 _017_
*65 _018_
*66 _019_
*67 _020_
*68 _021_
*69 _022_
*70 _023_
*71 _024_
*72 _025_
*73 _026_
*74 _027_
*75 _028_
*76 _029_
*77 _030_
*78 _031_
*79 _032_
*80 _033_
*81 _034_
*82 _035_
*83 _036_
*84 _037_
*85 _038_
*86 _039_
*87 _040_
*88 _041_
*89 _042_
*90 _043_
*91 _044_
*92 _045_
*93 _046_
*94 _047_
*95 _048_
*96 _049_
*97 _050_
*98 _051_
*99 _052_
*100 _053_
*101 clknet_0_clk
*102 clknet_1_0__leaf_clk
*103 clknet_1_1__leaf_clk
*104 counter\[0\]
*105 counter\[1\]
*106 counter\[2\]
*107 counter\[3\]
*108 counter\[4\]
*109 counter\[5\]
*110 net1
*111 net20
*112 net21
*113 net22
*114 net23
*115 seq\[0\]
*116 seq\[1\]
*117 seq\[2\]
*118 seq\[3\]
*119 FILLER_0_0_109
*120 FILLER_0_0_113
*121 FILLER_0_0_125
*122 FILLER_0_0_137
*123 FILLER_0_0_141
*124 FILLER_0_0_15
*125 FILLER_0_0_153
*126 FILLER_0_0_165
*127 FILLER_0_0_169
*128 FILLER_0_0_181
*129 FILLER_0_0_193
*130 FILLER_0_0_197
*131 FILLER_0_0_209
*132 FILLER_0_0_221
*133 FILLER_0_0_225
*134 FILLER_0_0_237
*135 FILLER_0_0_249
*136 FILLER_0_0_253
*137 FILLER_0_0_265
*138 FILLER_0_0_27
*139 FILLER_0_0_277
*140 FILLER_0_0_281
*141 FILLER_0_0_29
*142 FILLER_0_0_293
*143 FILLER_0_0_3
*144 FILLER_0_0_305
*145 FILLER_0_0_309
*146 FILLER_0_0_321
*147 FILLER_0_0_333
*148 FILLER_0_0_41
*149 FILLER_0_0_53
*150 FILLER_0_0_57
*151 FILLER_0_0_69
*152 FILLER_0_0_81
*153 FILLER_0_0_85
*154 FILLER_0_0_97
*155 FILLER_0_10_109
*156 FILLER_0_10_121
*157 FILLER_0_10_133
*158 FILLER_0_10_139
*159 FILLER_0_10_141
*160 FILLER_0_10_15
*161 FILLER_0_10_153
*162 FILLER_0_10_165
*163 FILLER_0_10_177
*164 FILLER_0_10_189
*165 FILLER_0_10_195
*166 FILLER_0_10_197
*167 FILLER_0_10_209
*168 FILLER_0_10_221
*169 FILLER_0_10_233
*170 FILLER_0_10_245
*171 FILLER_0_10_251
*172 FILLER_0_10_253
*173 FILLER_0_10_265
*174 FILLER_0_10_27
*175 FILLER_0_10_277
*176 FILLER_0_10_289
*177 FILLER_0_10_29
*178 FILLER_0_10_3
*179 FILLER_0_10_301
*180 FILLER_0_10_307
*181 FILLER_0_10_309
*182 FILLER_0_10_321
*183 FILLER_0_10_333
*184 FILLER_0_10_41
*185 FILLER_0_10_53
*186 FILLER_0_10_65
*187 FILLER_0_10_77
*188 FILLER_0_10_83
*189 FILLER_0_10_85
*190 FILLER_0_10_97
*191 FILLER_0_11_105
*192 FILLER_0_11_111
*193 FILLER_0_11_113
*194 FILLER_0_11_125
*195 FILLER_0_11_137
*196 FILLER_0_11_149
*197 FILLER_0_11_15
*198 FILLER_0_11_161
*199 FILLER_0_11_167
*200 FILLER_0_11_169
*201 FILLER_0_11_181
*202 FILLER_0_11_193
*203 FILLER_0_11_205
*204 FILLER_0_11_217
*205 FILLER_0_11_223
*206 FILLER_0_11_225
*207 FILLER_0_11_237
*208 FILLER_0_11_249
*209 FILLER_0_11_261
*210 FILLER_0_11_27
*211 FILLER_0_11_273
*212 FILLER_0_11_279
*213 FILLER_0_11_281
*214 FILLER_0_11_293
*215 FILLER_0_11_3
*216 FILLER_0_11_305
*217 FILLER_0_11_317
*218 FILLER_0_11_329
*219 FILLER_0_11_39
*220 FILLER_0_11_51
*221 FILLER_0_11_55
*222 FILLER_0_11_57
*223 FILLER_0_11_69
*224 FILLER_0_11_81
*225 FILLER_0_11_93
*226 FILLER_0_12_109
*227 FILLER_0_12_121
*228 FILLER_0_12_133
*229 FILLER_0_12_139
*230 FILLER_0_12_141
*231 FILLER_0_12_15
*232 FILLER_0_12_153
*233 FILLER_0_12_165
*234 FILLER_0_12_177
*235 FILLER_0_12_189
*236 FILLER_0_12_195
*237 FILLER_0_12_197
*238 FILLER_0_12_209
*239 FILLER_0_12_221
*240 FILLER_0_12_233
*241 FILLER_0_12_245
*242 FILLER_0_12_251
*243 FILLER_0_12_253
*244 FILLER_0_12_265
*245 FILLER_0_12_27
*246 FILLER_0_12_277
*247 FILLER_0_12_289
*248 FILLER_0_12_29
*249 FILLER_0_12_3
*250 FILLER_0_12_301
*251 FILLER_0_12_307
*252 FILLER_0_12_309
*253 FILLER_0_12_321
*254 FILLER_0_12_333
*255 FILLER_0_12_41
*256 FILLER_0_12_53
*257 FILLER_0_12_65
*258 FILLER_0_12_77
*259 FILLER_0_12_83
*260 FILLER_0_12_85
*261 FILLER_0_12_97
*262 FILLER_0_13_105
*263 FILLER_0_13_111
*264 FILLER_0_13_113
*265 FILLER_0_13_125
*266 FILLER_0_13_137
*267 FILLER_0_13_149
*268 FILLER_0_13_15
*269 FILLER_0_13_161
*270 FILLER_0_13_167
*271 FILLER_0_13_169
*272 FILLER_0_13_181
*273 FILLER_0_13_193
*274 FILLER_0_13_205
*275 FILLER_0_13_217
*276 FILLER_0_13_223
*277 FILLER_0_13_225
*278 FILLER_0_13_237
*279 FILLER_0_13_249
*280 FILLER_0_13_261
*281 FILLER_0_13_27
*282 FILLER_0_13_273
*283 FILLER_0_13_279
*284 FILLER_0_13_281
*285 FILLER_0_13_293
*286 FILLER_0_13_3
*287 FILLER_0_13_305
*288 FILLER_0_13_317
*289 FILLER_0_13_329
*290 FILLER_0_13_39
*291 FILLER_0_13_51
*292 FILLER_0_13_55
*293 FILLER_0_13_57
*294 FILLER_0_13_69
*295 FILLER_0_13_81
*296 FILLER_0_13_93
*297 FILLER_0_14_109
*298 FILLER_0_14_121
*299 FILLER_0_14_133
*300 FILLER_0_14_139
*301 FILLER_0_14_141
*302 FILLER_0_14_15
*303 FILLER_0_14_153
*304 FILLER_0_14_165
*305 FILLER_0_14_177
*306 FILLER_0_14_189
*307 FILLER_0_14_195
*308 FILLER_0_14_197
*309 FILLER_0_14_209
*310 FILLER_0_14_221
*311 FILLER_0_14_233
*312 FILLER_0_14_245
*313 FILLER_0_14_251
*314 FILLER_0_14_253
*315 FILLER_0_14_265
*316 FILLER_0_14_27
*317 FILLER_0_14_277
*318 FILLER_0_14_289
*319 FILLER_0_14_29
*320 FILLER_0_14_3
*321 FILLER_0_14_301
*322 FILLER_0_14_307
*323 FILLER_0_14_309
*324 FILLER_0_14_321
*325 FILLER_0_14_333
*326 FILLER_0_14_41
*327 FILLER_0_14_53
*328 FILLER_0_14_65
*329 FILLER_0_14_77
*330 FILLER_0_14_83
*331 FILLER_0_14_85
*332 FILLER_0_14_97
*333 FILLER_0_15_105
*334 FILLER_0_15_111
*335 FILLER_0_15_113
*336 FILLER_0_15_125
*337 FILLER_0_15_137
*338 FILLER_0_15_149
*339 FILLER_0_15_15
*340 FILLER_0_15_161
*341 FILLER_0_15_167
*342 FILLER_0_15_169
*343 FILLER_0_15_181
*344 FILLER_0_15_193
*345 FILLER_0_15_205
*346 FILLER_0_15_217
*347 FILLER_0_15_223
*348 FILLER_0_15_225
*349 FILLER_0_15_237
*350 FILLER_0_15_249
*351 FILLER_0_15_261
*352 FILLER_0_15_27
*353 FILLER_0_15_273
*354 FILLER_0_15_279
*355 FILLER_0_15_281
*356 FILLER_0_15_293
*357 FILLER_0_15_3
*358 FILLER_0_15_305
*359 FILLER_0_15_317
*360 FILLER_0_15_329
*361 FILLER_0_15_39
*362 FILLER_0_15_51
*363 FILLER_0_15_55
*364 FILLER_0_15_57
*365 FILLER_0_15_69
*366 FILLER_0_15_81
*367 FILLER_0_15_93
*368 FILLER_0_16_109
*369 FILLER_0_16_121
*370 FILLER_0_16_133
*371 FILLER_0_16_139
*372 FILLER_0_16_141
*373 FILLER_0_16_15
*374 FILLER_0_16_153
*375 FILLER_0_16_165
*376 FILLER_0_16_177
*377 FILLER_0_16_189
*378 FILLER_0_16_195
*379 FILLER_0_16_197
*380 FILLER_0_16_209
*381 FILLER_0_16_221
*382 FILLER_0_16_233
*383 FILLER_0_16_245
*384 FILLER_0_16_251
*385 FILLER_0_16_253
*386 FILLER_0_16_265
*387 FILLER_0_16_27
*388 FILLER_0_16_277
*389 FILLER_0_16_289
*390 FILLER_0_16_29
*391 FILLER_0_16_3
*392 FILLER_0_16_301
*393 FILLER_0_16_307
*394 FILLER_0_16_309
*395 FILLER_0_16_321
*396 FILLER_0_16_333
*397 FILLER_0_16_41
*398 FILLER_0_16_53
*399 FILLER_0_16_65
*400 FILLER_0_16_77
*401 FILLER_0_16_83
*402 FILLER_0_16_85
*403 FILLER_0_16_97
*404 FILLER_0_17_105
*405 FILLER_0_17_111
*406 FILLER_0_17_113
*407 FILLER_0_17_125
*408 FILLER_0_17_137
*409 FILLER_0_17_149
*410 FILLER_0_17_15
*411 FILLER_0_17_161
*412 FILLER_0_17_167
*413 FILLER_0_17_169
*414 FILLER_0_17_181
*415 FILLER_0_17_193
*416 FILLER_0_17_205
*417 FILLER_0_17_217
*418 FILLER_0_17_223
*419 FILLER_0_17_225
*420 FILLER_0_17_237
*421 FILLER_0_17_249
*422 FILLER_0_17_261
*423 FILLER_0_17_27
*424 FILLER_0_17_273
*425 FILLER_0_17_279
*426 FILLER_0_17_281
*427 FILLER_0_17_293
*428 FILLER_0_17_3
*429 FILLER_0_17_305
*430 FILLER_0_17_317
*431 FILLER_0_17_329
*432 FILLER_0_17_39
*433 FILLER_0_17_51
*434 FILLER_0_17_55
*435 FILLER_0_17_57
*436 FILLER_0_17_69
*437 FILLER_0_17_81
*438 FILLER_0_17_93
*439 FILLER_0_18_109
*440 FILLER_0_18_121
*441 FILLER_0_18_133
*442 FILLER_0_18_139
*443 FILLER_0_18_141
*444 FILLER_0_18_15
*445 FILLER_0_18_153
*446 FILLER_0_18_165
*447 FILLER_0_18_177
*448 FILLER_0_18_189
*449 FILLER_0_18_195
*450 FILLER_0_18_197
*451 FILLER_0_18_209
*452 FILLER_0_18_221
*453 FILLER_0_18_233
*454 FILLER_0_18_245
*455 FILLER_0_18_251
*456 FILLER_0_18_253
*457 FILLER_0_18_265
*458 FILLER_0_18_27
*459 FILLER_0_18_277
*460 FILLER_0_18_289
*461 FILLER_0_18_29
*462 FILLER_0_18_3
*463 FILLER_0_18_301
*464 FILLER_0_18_307
*465 FILLER_0_18_309
*466 FILLER_0_18_321
*467 FILLER_0_18_333
*468 FILLER_0_18_41
*469 FILLER_0_18_53
*470 FILLER_0_18_65
*471 FILLER_0_18_77
*472 FILLER_0_18_83
*473 FILLER_0_18_85
*474 FILLER_0_18_97
*475 FILLER_0_19_105
*476 FILLER_0_19_111
*477 FILLER_0_19_113
*478 FILLER_0_19_125
*479 FILLER_0_19_137
*480 FILLER_0_19_149
*481 FILLER_0_19_15
*482 FILLER_0_19_161
*483 FILLER_0_19_167
*484 FILLER_0_19_169
*485 FILLER_0_19_181
*486 FILLER_0_19_193
*487 FILLER_0_19_205
*488 FILLER_0_19_217
*489 FILLER_0_19_223
*490 FILLER_0_19_225
*491 FILLER_0_19_237
*492 FILLER_0_19_249
*493 FILLER_0_19_261
*494 FILLER_0_19_27
*495 FILLER_0_19_273
*496 FILLER_0_19_279
*497 FILLER_0_19_281
*498 FILLER_0_19_293
*499 FILLER_0_19_3
*500 FILLER_0_19_305
*501 FILLER_0_19_317
*502 FILLER_0_19_329
*503 FILLER_0_19_39
*504 FILLER_0_19_51
*505 FILLER_0_19_55
*506 FILLER_0_19_57
*507 FILLER_0_19_69
*508 FILLER_0_19_81
*509 FILLER_0_19_93
*510 FILLER_0_1_105
*511 FILLER_0_1_111
*512 FILLER_0_1_113
*513 FILLER_0_1_125
*514 FILLER_0_1_137
*515 FILLER_0_1_149
*516 FILLER_0_1_15
*517 FILLER_0_1_161
*518 FILLER_0_1_167
*519 FILLER_0_1_169
*520 FILLER_0_1_181
*521 FILLER_0_1_193
*522 FILLER_0_1_205
*523 FILLER_0_1_217
*524 FILLER_0_1_223
*525 FILLER_0_1_225
*526 FILLER_0_1_237
*527 FILLER_0_1_249
*528 FILLER_0_1_261
*529 FILLER_0_1_27
*530 FILLER_0_1_273
*531 FILLER_0_1_279
*532 FILLER_0_1_281
*533 FILLER_0_1_293
*534 FILLER_0_1_3
*535 FILLER_0_1_305
*536 FILLER_0_1_317
*537 FILLER_0_1_329
*538 FILLER_0_1_39
*539 FILLER_0_1_51
*540 FILLER_0_1_55
*541 FILLER_0_1_57
*542 FILLER_0_1_69
*543 FILLER_0_1_81
*544 FILLER_0_1_93
*545 FILLER_0_20_109
*546 FILLER_0_20_121
*547 FILLER_0_20_133
*548 FILLER_0_20_139
*549 FILLER_0_20_141
*550 FILLER_0_20_15
*551 FILLER_0_20_153
*552 FILLER_0_20_165
*553 FILLER_0_20_177
*554 FILLER_0_20_189
*555 FILLER_0_20_195
*556 FILLER_0_20_197
*557 FILLER_0_20_209
*558 FILLER_0_20_221
*559 FILLER_0_20_233
*560 FILLER_0_20_245
*561 FILLER_0_20_251
*562 FILLER_0_20_253
*563 FILLER_0_20_265
*564 FILLER_0_20_27
*565 FILLER_0_20_277
*566 FILLER_0_20_289
*567 FILLER_0_20_29
*568 FILLER_0_20_3
*569 FILLER_0_20_301
*570 FILLER_0_20_307
*571 FILLER_0_20_309
*572 FILLER_0_20_321
*573 FILLER_0_20_333
*574 FILLER_0_20_41
*575 FILLER_0_20_53
*576 FILLER_0_20_65
*577 FILLER_0_20_77
*578 FILLER_0_20_83
*579 FILLER_0_20_85
*580 FILLER_0_20_97
*581 FILLER_0_21_105
*582 FILLER_0_21_111
*583 FILLER_0_21_113
*584 FILLER_0_21_125
*585 FILLER_0_21_137
*586 FILLER_0_21_149
*587 FILLER_0_21_15
*588 FILLER_0_21_161
*589 FILLER_0_21_167
*590 FILLER_0_21_169
*591 FILLER_0_21_181
*592 FILLER_0_21_193
*593 FILLER_0_21_205
*594 FILLER_0_21_217
*595 FILLER_0_21_223
*596 FILLER_0_21_225
*597 FILLER_0_21_237
*598 FILLER_0_21_249
*599 FILLER_0_21_261
*600 FILLER_0_21_27
*601 FILLER_0_21_273
*602 FILLER_0_21_279
*603 FILLER_0_21_281
*604 FILLER_0_21_293
*605 FILLER_0_21_3
*606 FILLER_0_21_305
*607 FILLER_0_21_317
*608 FILLER_0_21_329
*609 FILLER_0_21_39
*610 FILLER_0_21_51
*611 FILLER_0_21_55
*612 FILLER_0_21_57
*613 FILLER_0_21_69
*614 FILLER_0_21_81
*615 FILLER_0_21_93
*616 FILLER_0_22_109
*617 FILLER_0_22_121
*618 FILLER_0_22_133
*619 FILLER_0_22_139
*620 FILLER_0_22_141
*621 FILLER_0_22_15
*622 FILLER_0_22_153
*623 FILLER_0_22_165
*624 FILLER_0_22_177
*625 FILLER_0_22_189
*626 FILLER_0_22_195
*627 FILLER_0_22_197
*628 FILLER_0_22_209
*629 FILLER_0_22_221
*630 FILLER_0_22_233
*631 FILLER_0_22_245
*632 FILLER_0_22_251
*633 FILLER_0_22_253
*634 FILLER_0_22_265
*635 FILLER_0_22_27
*636 FILLER_0_22_277
*637 FILLER_0_22_289
*638 FILLER_0_22_29
*639 FILLER_0_22_3
*640 FILLER_0_22_301
*641 FILLER_0_22_307
*642 FILLER_0_22_309
*643 FILLER_0_22_321
*644 FILLER_0_22_333
*645 FILLER_0_22_41
*646 FILLER_0_22_53
*647 FILLER_0_22_65
*648 FILLER_0_22_77
*649 FILLER_0_22_83
*650 FILLER_0_22_85
*651 FILLER_0_22_97
*652 FILLER_0_23_105
*653 FILLER_0_23_111
*654 FILLER_0_23_113
*655 FILLER_0_23_125
*656 FILLER_0_23_137
*657 FILLER_0_23_149
*658 FILLER_0_23_15
*659 FILLER_0_23_161
*660 FILLER_0_23_167
*661 FILLER_0_23_169
*662 FILLER_0_23_181
*663 FILLER_0_23_193
*664 FILLER_0_23_205
*665 FILLER_0_23_217
*666 FILLER_0_23_223
*667 FILLER_0_23_225
*668 FILLER_0_23_237
*669 FILLER_0_23_249
*670 FILLER_0_23_261
*671 FILLER_0_23_27
*672 FILLER_0_23_273
*673 FILLER_0_23_279
*674 FILLER_0_23_281
*675 FILLER_0_23_293
*676 FILLER_0_23_3
*677 FILLER_0_23_305
*678 FILLER_0_23_317
*679 FILLER_0_23_329
*680 FILLER_0_23_39
*681 FILLER_0_23_51
*682 FILLER_0_23_55
*683 FILLER_0_23_57
*684 FILLER_0_23_69
*685 FILLER_0_23_81
*686 FILLER_0_23_93
*687 FILLER_0_24_109
*688 FILLER_0_24_121
*689 FILLER_0_24_133
*690 FILLER_0_24_139
*691 FILLER_0_24_141
*692 FILLER_0_24_15
*693 FILLER_0_24_153
*694 FILLER_0_24_165
*695 FILLER_0_24_177
*696 FILLER_0_24_189
*697 FILLER_0_24_195
*698 FILLER_0_24_197
*699 FILLER_0_24_209
*700 FILLER_0_24_221
*701 FILLER_0_24_233
*702 FILLER_0_24_245
*703 FILLER_0_24_251
*704 FILLER_0_24_253
*705 FILLER_0_24_265
*706 FILLER_0_24_27
*707 FILLER_0_24_277
*708 FILLER_0_24_289
*709 FILLER_0_24_29
*710 FILLER_0_24_3
*711 FILLER_0_24_301
*712 FILLER_0_24_307
*713 FILLER_0_24_309
*714 FILLER_0_24_321
*715 FILLER_0_24_333
*716 FILLER_0_24_41
*717 FILLER_0_24_53
*718 FILLER_0_24_65
*719 FILLER_0_24_77
*720 FILLER_0_24_83
*721 FILLER_0_24_85
*722 FILLER_0_24_97
*723 FILLER_0_25_105
*724 FILLER_0_25_111
*725 FILLER_0_25_113
*726 FILLER_0_25_125
*727 FILLER_0_25_137
*728 FILLER_0_25_149
*729 FILLER_0_25_15
*730 FILLER_0_25_161
*731 FILLER_0_25_167
*732 FILLER_0_25_169
*733 FILLER_0_25_181
*734 FILLER_0_25_193
*735 FILLER_0_25_205
*736 FILLER_0_25_217
*737 FILLER_0_25_223
*738 FILLER_0_25_225
*739 FILLER_0_25_237
*740 FILLER_0_25_249
*741 FILLER_0_25_261
*742 FILLER_0_25_27
*743 FILLER_0_25_273
*744 FILLER_0_25_279
*745 FILLER_0_25_281
*746 FILLER_0_25_293
*747 FILLER_0_25_3
*748 FILLER_0_25_305
*749 FILLER_0_25_317
*750 FILLER_0_25_329
*751 FILLER_0_25_39
*752 FILLER_0_25_51
*753 FILLER_0_25_55
*754 FILLER_0_25_57
*755 FILLER_0_25_69
*756 FILLER_0_25_81
*757 FILLER_0_25_93
*758 FILLER_0_26_109
*759 FILLER_0_26_121
*760 FILLER_0_26_133
*761 FILLER_0_26_139
*762 FILLER_0_26_141
*763 FILLER_0_26_15
*764 FILLER_0_26_153
*765 FILLER_0_26_165
*766 FILLER_0_26_177
*767 FILLER_0_26_189
*768 FILLER_0_26_195
*769 FILLER_0_26_197
*770 FILLER_0_26_209
*771 FILLER_0_26_221
*772 FILLER_0_26_233
*773 FILLER_0_26_245
*774 FILLER_0_26_251
*775 FILLER_0_26_253
*776 FILLER_0_26_265
*777 FILLER_0_26_27
*778 FILLER_0_26_277
*779 FILLER_0_26_289
*780 FILLER_0_26_29
*781 FILLER_0_26_3
*782 FILLER_0_26_301
*783 FILLER_0_26_307
*784 FILLER_0_26_309
*785 FILLER_0_26_321
*786 FILLER_0_26_333
*787 FILLER_0_26_41
*788 FILLER_0_26_53
*789 FILLER_0_26_65
*790 FILLER_0_26_77
*791 FILLER_0_26_83
*792 FILLER_0_26_85
*793 FILLER_0_26_97
*794 FILLER_0_27_105
*795 FILLER_0_27_111
*796 FILLER_0_27_113
*797 FILLER_0_27_125
*798 FILLER_0_27_137
*799 FILLER_0_27_149
*800 FILLER_0_27_15
*801 FILLER_0_27_161
*802 FILLER_0_27_167
*803 FILLER_0_27_169
*804 FILLER_0_27_181
*805 FILLER_0_27_193
*806 FILLER_0_27_205
*807 FILLER_0_27_217
*808 FILLER_0_27_223
*809 FILLER_0_27_225
*810 FILLER_0_27_237
*811 FILLER_0_27_249
*812 FILLER_0_27_261
*813 FILLER_0_27_27
*814 FILLER_0_27_273
*815 FILLER_0_27_279
*816 FILLER_0_27_281
*817 FILLER_0_27_293
*818 FILLER_0_27_3
*819 FILLER_0_27_305
*820 FILLER_0_27_317
*821 FILLER_0_27_329
*822 FILLER_0_27_39
*823 FILLER_0_27_51
*824 FILLER_0_27_55
*825 FILLER_0_27_57
*826 FILLER_0_27_69
*827 FILLER_0_27_81
*828 FILLER_0_27_93
*829 FILLER_0_28_109
*830 FILLER_0_28_121
*831 FILLER_0_28_133
*832 FILLER_0_28_139
*833 FILLER_0_28_141
*834 FILLER_0_28_15
*835 FILLER_0_28_153
*836 FILLER_0_28_165
*837 FILLER_0_28_177
*838 FILLER_0_28_189
*839 FILLER_0_28_195
*840 FILLER_0_28_197
*841 FILLER_0_28_209
*842 FILLER_0_28_221
*843 FILLER_0_28_233
*844 FILLER_0_28_245
*845 FILLER_0_28_251
*846 FILLER_0_28_253
*847 FILLER_0_28_265
*848 FILLER_0_28_27
*849 FILLER_0_28_277
*850 FILLER_0_28_289
*851 FILLER_0_28_29
*852 FILLER_0_28_3
*853 FILLER_0_28_301
*854 FILLER_0_28_307
*855 FILLER_0_28_309
*856 FILLER_0_28_321
*857 FILLER_0_28_333
*858 FILLER_0_28_41
*859 FILLER_0_28_53
*860 FILLER_0_28_65
*861 FILLER_0_28_77
*862 FILLER_0_28_83
*863 FILLER_0_28_85
*864 FILLER_0_28_97
*865 FILLER_0_29_105
*866 FILLER_0_29_111
*867 FILLER_0_29_113
*868 FILLER_0_29_125
*869 FILLER_0_29_137
*870 FILLER_0_29_149
*871 FILLER_0_29_15
*872 FILLER_0_29_161
*873 FILLER_0_29_167
*874 FILLER_0_29_169
*875 FILLER_0_29_181
*876 FILLER_0_29_193
*877 FILLER_0_29_205
*878 FILLER_0_29_217
*879 FILLER_0_29_223
*880 FILLER_0_29_225
*881 FILLER_0_29_237
*882 FILLER_0_29_249
*883 FILLER_0_29_261
*884 FILLER_0_29_27
*885 FILLER_0_29_273
*886 FILLER_0_29_279
*887 FILLER_0_29_281
*888 FILLER_0_29_293
*889 FILLER_0_29_3
*890 FILLER_0_29_305
*891 FILLER_0_29_317
*892 FILLER_0_29_329
*893 FILLER_0_29_39
*894 FILLER_0_29_51
*895 FILLER_0_29_55
*896 FILLER_0_29_57
*897 FILLER_0_29_69
*898 FILLER_0_29_81
*899 FILLER_0_29_93
*900 FILLER_0_2_109
*901 FILLER_0_2_121
*902 FILLER_0_2_133
*903 FILLER_0_2_139
*904 FILLER_0_2_141
*905 FILLER_0_2_15
*906 FILLER_0_2_153
*907 FILLER_0_2_165
*908 FILLER_0_2_177
*909 FILLER_0_2_189
*910 FILLER_0_2_195
*911 FILLER_0_2_197
*912 FILLER_0_2_209
*913 FILLER_0_2_221
*914 FILLER_0_2_233
*915 FILLER_0_2_245
*916 FILLER_0_2_251
*917 FILLER_0_2_253
*918 FILLER_0_2_265
*919 FILLER_0_2_27
*920 FILLER_0_2_277
*921 FILLER_0_2_289
*922 FILLER_0_2_29
*923 FILLER_0_2_3
*924 FILLER_0_2_301
*925 FILLER_0_2_307
*926 FILLER_0_2_309
*927 FILLER_0_2_321
*928 FILLER_0_2_333
*929 FILLER_0_2_41
*930 FILLER_0_2_53
*931 FILLER_0_2_65
*932 FILLER_0_2_77
*933 FILLER_0_2_83
*934 FILLER_0_2_85
*935 FILLER_0_2_97
*936 FILLER_0_30_109
*937 FILLER_0_30_121
*938 FILLER_0_30_133
*939 FILLER_0_30_139
*940 FILLER_0_30_141
*941 FILLER_0_30_15
*942 FILLER_0_30_153
*943 FILLER_0_30_165
*944 FILLER_0_30_177
*945 FILLER_0_30_189
*946 FILLER_0_30_195
*947 FILLER_0_30_197
*948 FILLER_0_30_209
*949 FILLER_0_30_221
*950 FILLER_0_30_233
*951 FILLER_0_30_245
*952 FILLER_0_30_251
*953 FILLER_0_30_253
*954 FILLER_0_30_265
*955 FILLER_0_30_27
*956 FILLER_0_30_277
*957 FILLER_0_30_289
*958 FILLER_0_30_29
*959 FILLER_0_30_3
*960 FILLER_0_30_301
*961 FILLER_0_30_307
*962 FILLER_0_30_309
*963 FILLER_0_30_321
*964 FILLER_0_30_333
*965 FILLER_0_30_41
*966 FILLER_0_30_53
*967 FILLER_0_30_65
*968 FILLER_0_30_77
*969 FILLER_0_30_83
*970 FILLER_0_30_85
*971 FILLER_0_30_97
*972 FILLER_0_31_105
*973 FILLER_0_31_111
*974 FILLER_0_31_113
*975 FILLER_0_31_125
*976 FILLER_0_31_137
*977 FILLER_0_31_149
*978 FILLER_0_31_15
*979 FILLER_0_31_161
*980 FILLER_0_31_167
*981 FILLER_0_31_169
*982 FILLER_0_31_181
*983 FILLER_0_31_193
*984 FILLER_0_31_205
*985 FILLER_0_31_217
*986 FILLER_0_31_223
*987 FILLER_0_31_225
*988 FILLER_0_31_237
*989 FILLER_0_31_249
*990 FILLER_0_31_261
*991 FILLER_0_31_27
*992 FILLER_0_31_273
*993 FILLER_0_31_279
*994 FILLER_0_31_281
*995 FILLER_0_31_293
*996 FILLER_0_31_3
*997 FILLER_0_31_305
*998 FILLER_0_31_317
*999 FILLER_0_31_329
*1000 FILLER_0_31_39
*1001 FILLER_0_31_51
*1002 FILLER_0_31_55
*1003 FILLER_0_31_57
*1004 FILLER_0_31_69
*1005 FILLER_0_31_81
*1006 FILLER_0_31_93
*1007 FILLER_0_32_109
*1008 FILLER_0_32_121
*1009 FILLER_0_32_133
*1010 FILLER_0_32_139
*1011 FILLER_0_32_141
*1012 FILLER_0_32_15
*1013 FILLER_0_32_153
*1014 FILLER_0_32_165
*1015 FILLER_0_32_177
*1016 FILLER_0_32_189
*1017 FILLER_0_32_195
*1018 FILLER_0_32_197
*1019 FILLER_0_32_209
*1020 FILLER_0_32_218
*1021 FILLER_0_32_228
*1022 FILLER_0_32_240
*1023 FILLER_0_32_253
*1024 FILLER_0_32_265
*1025 FILLER_0_32_27
*1026 FILLER_0_32_277
*1027 FILLER_0_32_281
*1028 FILLER_0_32_29
*1029 FILLER_0_32_298
*1030 FILLER_0_32_3
*1031 FILLER_0_32_306
*1032 FILLER_0_32_309
*1033 FILLER_0_32_321
*1034 FILLER_0_32_333
*1035 FILLER_0_32_41
*1036 FILLER_0_32_53
*1037 FILLER_0_32_65
*1038 FILLER_0_32_77
*1039 FILLER_0_32_83
*1040 FILLER_0_32_85
*1041 FILLER_0_32_97
*1042 FILLER_0_33_105
*1043 FILLER_0_33_111
*1044 FILLER_0_33_113
*1045 FILLER_0_33_125
*1046 FILLER_0_33_137
*1047 FILLER_0_33_149
*1048 FILLER_0_33_15
*1049 FILLER_0_33_161
*1050 FILLER_0_33_167
*1051 FILLER_0_33_169
*1052 FILLER_0_33_181
*1053 FILLER_0_33_185
*1054 FILLER_0_33_193
*1055 FILLER_0_33_205
*1056 FILLER_0_33_225
*1057 FILLER_0_33_229
*1058 FILLER_0_33_247
*1059 FILLER_0_33_251
*1060 FILLER_0_33_27
*1061 FILLER_0_33_275
*1062 FILLER_0_33_279
*1063 FILLER_0_33_290
*1064 FILLER_0_33_3
*1065 FILLER_0_33_305
*1066 FILLER_0_33_317
*1067 FILLER_0_33_329
*1068 FILLER_0_33_39
*1069 FILLER_0_33_51
*1070 FILLER_0_33_55
*1071 FILLER_0_33_57
*1072 FILLER_0_33_69
*1073 FILLER_0_33_81
*1074 FILLER_0_33_93
*1075 FILLER_0_34_109
*1076 FILLER_0_34_121
*1077 FILLER_0_34_133
*1078 FILLER_0_34_139
*1079 FILLER_0_34_141
*1080 FILLER_0_34_15
*1081 FILLER_0_34_174
*1082 FILLER_0_34_180
*1083 FILLER_0_34_185
*1084 FILLER_0_34_197
*1085 FILLER_0_34_207
*1086 FILLER_0_34_223
*1087 FILLER_0_34_231
*1088 FILLER_0_34_251
*1089 FILLER_0_34_253
*1090 FILLER_0_34_27
*1091 FILLER_0_34_286
*1092 FILLER_0_34_29
*1093 FILLER_0_34_3
*1094 FILLER_0_34_303
*1095 FILLER_0_34_307
*1096 FILLER_0_34_325
*1097 FILLER_0_34_333
*1098 FILLER_0_34_41
*1099 FILLER_0_34_53
*1100 FILLER_0_34_65
*1101 FILLER_0_34_77
*1102 FILLER_0_34_83
*1103 FILLER_0_34_85
*1104 FILLER_0_34_97
*1105 FILLER_0_35_105
*1106 FILLER_0_35_111
*1107 FILLER_0_35_113
*1108 FILLER_0_35_125
*1109 FILLER_0_35_137
*1110 FILLER_0_35_149
*1111 FILLER_0_35_15
*1112 FILLER_0_35_161
*1113 FILLER_0_35_167
*1114 FILLER_0_35_169
*1115 FILLER_0_35_188
*1116 FILLER_0_35_194
*1117 FILLER_0_35_203
*1118 FILLER_0_35_216
*1119 FILLER_0_35_232
*1120 FILLER_0_35_27
*1121 FILLER_0_35_272
*1122 FILLER_0_35_290
*1123 FILLER_0_35_3
*1124 FILLER_0_35_314
*1125 FILLER_0_35_326
*1126 FILLER_0_35_334
*1127 FILLER_0_35_39
*1128 FILLER_0_35_51
*1129 FILLER_0_35_55
*1130 FILLER_0_35_57
*1131 FILLER_0_35_69
*1132 FILLER_0_35_81
*1133 FILLER_0_35_93
*1134 FILLER_0_36_109
*1135 FILLER_0_36_121
*1136 FILLER_0_36_133
*1137 FILLER_0_36_139
*1138 FILLER_0_36_15
*1139 FILLER_0_36_168
*1140 FILLER_0_36_180
*1141 FILLER_0_36_188
*1142 FILLER_0_36_193
*1143 FILLER_0_36_208
*1144 FILLER_0_36_251
*1145 FILLER_0_36_253
*1146 FILLER_0_36_265
*1147 FILLER_0_36_27
*1148 FILLER_0_36_277
*1149 FILLER_0_36_29
*1150 FILLER_0_36_292
*1151 FILLER_0_36_299
*1152 FILLER_0_36_3
*1153 FILLER_0_36_307
*1154 FILLER_0_36_309
*1155 FILLER_0_36_321
*1156 FILLER_0_36_333
*1157 FILLER_0_36_41
*1158 FILLER_0_36_53
*1159 FILLER_0_36_65
*1160 FILLER_0_36_77
*1161 FILLER_0_36_83
*1162 FILLER_0_36_85
*1163 FILLER_0_36_97
*1164 FILLER_0_37_105
*1165 FILLER_0_37_111
*1166 FILLER_0_37_113
*1167 FILLER_0_37_125
*1168 FILLER_0_37_149
*1169 FILLER_0_37_15
*1170 FILLER_0_37_169
*1171 FILLER_0_37_175
*1172 FILLER_0_37_184
*1173 FILLER_0_37_196
*1174 FILLER_0_37_200
*1175 FILLER_0_37_209
*1176 FILLER_0_37_219
*1177 FILLER_0_37_223
*1178 FILLER_0_37_231
*1179 FILLER_0_37_251
*1180 FILLER_0_37_259
*1181 FILLER_0_37_27
*1182 FILLER_0_37_276
*1183 FILLER_0_37_286
*1184 FILLER_0_37_297
*1185 FILLER_0_37_3
*1186 FILLER_0_37_309
*1187 FILLER_0_37_321
*1188 FILLER_0_37_333
*1189 FILLER_0_37_39
*1190 FILLER_0_37_51
*1191 FILLER_0_37_55
*1192 FILLER_0_37_57
*1193 FILLER_0_37_69
*1194 FILLER_0_37_81
*1195 FILLER_0_37_93
*1196 FILLER_0_38_10
*1197 FILLER_0_38_102
*1198 FILLER_0_38_106
*1199 FILLER_0_38_110
*1200 FILLER_0_38_113
*1201 FILLER_0_38_118
*1202 FILLER_0_38_122
*1203 FILLER_0_38_126
*1204 FILLER_0_38_130
*1205 FILLER_0_38_134
*1206 FILLER_0_38_14
*1207 FILLER_0_38_144
*1208 FILLER_0_38_150
*1209 FILLER_0_38_169
*1210 FILLER_0_38_177
*1211 FILLER_0_38_18
*1212 FILLER_0_38_197
*1213 FILLER_0_38_203
*1214 FILLER_0_38_22
*1215 FILLER_0_38_223
*1216 FILLER_0_38_225
*1217 FILLER_0_38_233
*1218 FILLER_0_38_251
*1219 FILLER_0_38_253
*1220 FILLER_0_38_261
*1221 FILLER_0_38_281
*1222 FILLER_0_38_285
*1223 FILLER_0_38_309
*1224 FILLER_0_38_32
*1225 FILLER_0_38_321
*1226 FILLER_0_38_327
*1227 FILLER_0_38_38
*1228 FILLER_0_38_42
*1229 FILLER_0_38_46
*1230 FILLER_0_38_50
*1231 FILLER_0_38_54
*1232 FILLER_0_38_57
*1233 FILLER_0_38_6
*1234 FILLER_0_38_62
*1235 FILLER_0_38_66
*1236 FILLER_0_38_70
*1237 FILLER_0_38_74
*1238 FILLER_0_38_78
*1239 FILLER_0_38_88
*1240 FILLER_0_38_94
*1241 FILLER_0_38_98
*1242 FILLER_0_3_105
*1243 FILLER_0_3_111
*1244 FILLER_0_3_113
*1245 FILLER_0_3_125
*1246 FILLER_0_3_137
*1247 FILLER_0_3_149
*1248 FILLER_0_3_15
*1249 FILLER_0_3_161
*1250 FILLER_0_3_167
*1251 FILLER_0_3_169
*1252 FILLER_0_3_181
*1253 FILLER_0_3_193
*1254 FILLER_0_3_205
*1255 FILLER_0_3_217
*1256 FILLER_0_3_223
*1257 FILLER_0_3_225
*1258 FILLER_0_3_237
*1259 FILLER_0_3_249
*1260 FILLER_0_3_261
*1261 FILLER_0_3_27
*1262 FILLER_0_3_273
*1263 FILLER_0_3_279
*1264 FILLER_0_3_281
*1265 FILLER_0_3_293
*1266 FILLER_0_3_3
*1267 FILLER_0_3_305
*1268 FILLER_0_3_317
*1269 FILLER_0_3_329
*1270 FILLER_0_3_39
*1271 FILLER_0_3_51
*1272 FILLER_0_3_55
*1273 FILLER_0_3_57
*1274 FILLER_0_3_69
*1275 FILLER_0_3_81
*1276 FILLER_0_3_93
*1277 FILLER_0_4_109
*1278 FILLER_0_4_121
*1279 FILLER_0_4_133
*1280 FILLER_0_4_139
*1281 FILLER_0_4_141
*1282 FILLER_0_4_15
*1283 FILLER_0_4_153
*1284 FILLER_0_4_165
*1285 FILLER_0_4_177
*1286 FILLER_0_4_189
*1287 FILLER_0_4_195
*1288 FILLER_0_4_197
*1289 FILLER_0_4_209
*1290 FILLER_0_4_221
*1291 FILLER_0_4_233
*1292 FILLER_0_4_245
*1293 FILLER_0_4_251
*1294 FILLER_0_4_253
*1295 FILLER_0_4_265
*1296 FILLER_0_4_27
*1297 FILLER_0_4_277
*1298 FILLER_0_4_289
*1299 FILLER_0_4_29
*1300 FILLER_0_4_3
*1301 FILLER_0_4_301
*1302 FILLER_0_4_307
*1303 FILLER_0_4_309
*1304 FILLER_0_4_321
*1305 FILLER_0_4_333
*1306 FILLER_0_4_41
*1307 FILLER_0_4_53
*1308 FILLER_0_4_65
*1309 FILLER_0_4_77
*1310 FILLER_0_4_83
*1311 FILLER_0_4_85
*1312 FILLER_0_4_97
*1313 FILLER_0_5_105
*1314 FILLER_0_5_111
*1315 FILLER_0_5_113
*1316 FILLER_0_5_125
*1317 FILLER_0_5_137
*1318 FILLER_0_5_149
*1319 FILLER_0_5_15
*1320 FILLER_0_5_161
*1321 FILLER_0_5_167
*1322 FILLER_0_5_169
*1323 FILLER_0_5_181
*1324 FILLER_0_5_193
*1325 FILLER_0_5_205
*1326 FILLER_0_5_217
*1327 FILLER_0_5_223
*1328 FILLER_0_5_225
*1329 FILLER_0_5_237
*1330 FILLER_0_5_249
*1331 FILLER_0_5_261
*1332 FILLER_0_5_27
*1333 FILLER_0_5_273
*1334 FILLER_0_5_279
*1335 FILLER_0_5_281
*1336 FILLER_0_5_293
*1337 FILLER_0_5_3
*1338 FILLER_0_5_305
*1339 FILLER_0_5_317
*1340 FILLER_0_5_329
*1341 FILLER_0_5_39
*1342 FILLER_0_5_51
*1343 FILLER_0_5_55
*1344 FILLER_0_5_57
*1345 FILLER_0_5_69
*1346 FILLER_0_5_81
*1347 FILLER_0_5_93
*1348 FILLER_0_6_109
*1349 FILLER_0_6_121
*1350 FILLER_0_6_133
*1351 FILLER_0_6_139
*1352 FILLER_0_6_141
*1353 FILLER_0_6_15
*1354 FILLER_0_6_153
*1355 FILLER_0_6_165
*1356 FILLER_0_6_177
*1357 FILLER_0_6_189
*1358 FILLER_0_6_195
*1359 FILLER_0_6_197
*1360 FILLER_0_6_209
*1361 FILLER_0_6_221
*1362 FILLER_0_6_233
*1363 FILLER_0_6_245
*1364 FILLER_0_6_251
*1365 FILLER_0_6_253
*1366 FILLER_0_6_265
*1367 FILLER_0_6_27
*1368 FILLER_0_6_277
*1369 FILLER_0_6_289
*1370 FILLER_0_6_29
*1371 FILLER_0_6_3
*1372 FILLER_0_6_301
*1373 FILLER_0_6_307
*1374 FILLER_0_6_309
*1375 FILLER_0_6_321
*1376 FILLER_0_6_333
*1377 FILLER_0_6_41
*1378 FILLER_0_6_53
*1379 FILLER_0_6_65
*1380 FILLER_0_6_77
*1381 FILLER_0_6_83
*1382 FILLER_0_6_85
*1383 FILLER_0_6_97
*1384 FILLER_0_7_105
*1385 FILLER_0_7_111
*1386 FILLER_0_7_113
*1387 FILLER_0_7_125
*1388 FILLER_0_7_137
*1389 FILLER_0_7_149
*1390 FILLER_0_7_15
*1391 FILLER_0_7_161
*1392 FILLER_0_7_167
*1393 FILLER_0_7_169
*1394 FILLER_0_7_181
*1395 FILLER_0_7_193
*1396 FILLER_0_7_205
*1397 FILLER_0_7_217
*1398 FILLER_0_7_223
*1399 FILLER_0_7_225
*1400 FILLER_0_7_237
*1401 FILLER_0_7_249
*1402 FILLER_0_7_261
*1403 FILLER_0_7_27
*1404 FILLER_0_7_273
*1405 FILLER_0_7_279
*1406 FILLER_0_7_281
*1407 FILLER_0_7_293
*1408 FILLER_0_7_3
*1409 FILLER_0_7_305
*1410 FILLER_0_7_317
*1411 FILLER_0_7_329
*1412 FILLER_0_7_39
*1413 FILLER_0_7_51
*1414 FILLER_0_7_55
*1415 FILLER_0_7_57
*1416 FILLER_0_7_69
*1417 FILLER_0_7_81
*1418 FILLER_0_7_93
*1419 FILLER_0_8_109
*1420 FILLER_0_8_121
*1421 FILLER_0_8_133
*1422 FILLER_0_8_139
*1423 FILLER_0_8_141
*1424 FILLER_0_8_15
*1425 FILLER_0_8_153
*1426 FILLER_0_8_165
*1427 FILLER_0_8_177
*1428 FILLER_0_8_189
*1429 FILLER_0_8_195
*1430 FILLER_0_8_197
*1431 FILLER_0_8_209
*1432 FILLER_0_8_221
*1433 FILLER_0_8_233
*1434 FILLER_0_8_245
*1435 FILLER_0_8_251
*1436 FILLER_0_8_253
*1437 FILLER_0_8_265
*1438 FILLER_0_8_27
*1439 FILLER_0_8_277
*1440 FILLER_0_8_289
*1441 FILLER_0_8_29
*1442 FILLER_0_8_3
*1443 FILLER_0_8_301
*1444 FILLER_0_8_307
*1445 FILLER_0_8_309
*1446 FILLER_0_8_321
*1447 FILLER_0_8_333
*1448 FILLER_0_8_41
*1449 FILLER_0_8_53
*1450 FILLER_0_8_65
*1451 FILLER_0_8_77
*1452 FILLER_0_8_83
*1453 FILLER_0_8_85
*1454 FILLER_0_8_97
*1455 FILLER_0_9_105
*1456 FILLER_0_9_111
*1457 FILLER_0_9_113
*1458 FILLER_0_9_125
*1459 FILLER_0_9_137
*1460 FILLER_0_9_149
*1461 FILLER_0_9_15
*1462 FILLER_0_9_161
*1463 FILLER_0_9_167
*1464 FILLER_0_9_169
*1465 FILLER_0_9_181
*1466 FILLER_0_9_193
*1467 FILLER_0_9_205
*1468 FILLER_0_9_217
*1469 FILLER_0_9_223
*1470 FILLER_0_9_225
*1471 FILLER_0_9_237
*1472 FILLER_0_9_249
*1473 FILLER_0_9_261
*1474 FILLER_0_9_27
*1475 FILLER_0_9_273
*1476 FILLER_0_9_279
*1477 FILLER_0_9_281
*1478 FILLER_0_9_293
*1479 FILLER_0_9_3
*1480 FILLER_0_9_305
*1481 FILLER_0_9_317
*1482 FILLER_0_9_329