*SPEF "ieee 1481-1999"
*DESIGN "tt_um_wokwi_395567106413190145"
*DATE "15:03:22 Friday April 19, 2024"
*VENDOR "The OpenROAD Project"
*PROGRAM "OpenROAD"
*VERSION "0889970d1790a2617e69f253221b8bd7626e51dc"
*DESIGN_FLOW "NAME_SCOPE LOCAL" "PIN_CAP NONE"
*DIVIDER /
*DELIMITER :
*BUS_DELIMITER []
*T_UNIT 1 NS
*C_UNIT 1 PF
*R_UNIT 1 OHM
*L_UNIT 1 HENRY

*NAME_MAP
*3 clk
*4 ena
*5 rst_n
*6 ui_in[0]
*7 ui_in[1]
*8 ui_in[2]
*9 ui_in[3]
*10 ui_in[4]
*11 ui_in[5]
*12 ui_in[6]
*13 ui_in[7]
*14 uio_in[0]
*15 uio_in[1]
*16 uio_in[2]
*17 uio_in[3]
*18 uio_in[4]
*19 uio_in[5]
*20 uio_in[6]
*21 uio_in[7]
*22 net13
*23 net14
*24 net21
*25 net22
*26 net23
*27 net15
*28 net16
*29 net24
*30 net17
*31 net18
*32 uio_out[2]
*33 uio_out[3]
*34 uio_out[4]
*35 net19
*36 net20
*37 uio_out[7]
*38 uo_out[0]
*39 uo_out[1]
*40 uo_out[2]
*41 uo_out[3]
*42 uo_out[4]
*43 uo_out[5]
*44 uo_out[6]
*45 uo_out[7]
*46 _000_
*47 _001_
*48 _002_
*49 _003_
*50 _004_
*51 _005_
*52 _006_
*53 _007_
*54 _008_
*55 _009_
*56 _010_
*57 _011_
*58 _012_
*59 _013_
*60 _014_
*61 _015_
*62 _016_
*63 _017_
*64 _018_
*65 _019_
*66 _020_
*67 _021_
*68 _022_
*69 _023_
*70 _024_
*71 _025_
*72 _026_
*73 _027_
*74 _028_
*75 _029_
*76 _030_
*77 _031_
*78 _032_
*79 _033_
*80 _034_
*81 _035_
*82 _036_
*83 _037_
*84 _038_
*85 _039_
*86 _040_
*87 clknet_0_clk
*88 clknet_1_0__leaf_clk
*89 clknet_1_1__leaf_clk
*90 flop1\.d
*91 flop1\.q
*92 flop10\.d
*93 flop10\.q
*94 flop11\.q
*95 flop12\.q
*96 flop13\.q
*97 flop14\.q
*98 flop15\.q
*99 flop16\.notq
*100 flop16\.q
*101 flop17\.d
*102 flop17\.q
*103 flop18\.q
*104 flop19\.q
*105 flop2\.q
*106 flop20\.q
*107 flop21\.q
*108 flop22\.q
*109 flop23\.q
*110 flop24\.q
*111 flop25\.d
*112 flop25\.q
*113 flop26\.q
*114 flop27\.q
*115 flop28\.q
*116 flop29\.q
*117 flop3\.q
*118 flop30\.q
*119 flop31\.q
*120 flop32\.q
*121 flop4\.q
*122 flop5\.q
*123 flop6\.q
*124 flop7\.q
*125 flop8\.q
*126 flop9\.d
*127 nand3\.out
*128 net1
*129 net10
*130 net11
*131 net12
*132 net2
*133 net25
*134 net26
*135 net27
*136 net28
*137 net29
*138 net3
*139 net30
*140 net31
*141 net32
*142 net33
*143 net34
*144 net35
*145 net36
*146 net37
*147 net38
*148 net39
*149 net4
*150 net40
*151 net5
*152 net6
*153 net7
*154 net8
*155 net9
*156 or11\.out
*157 or12\.out
*158 or14\.out
*159 or16\.out
*160 or3\.out
*161 or5\.out
*162 or7\.out
*163 FILLER_0_0_109
*164 FILLER_0_0_113
*165 FILLER_0_0_125
*166 FILLER_0_0_137
*167 FILLER_0_0_141
*168 FILLER_0_0_15
*169 FILLER_0_0_153
*170 FILLER_0_0_165
*171 FILLER_0_0_169
*172 FILLER_0_0_181
*173 FILLER_0_0_193
*174 FILLER_0_0_197
*175 FILLER_0_0_209
*176 FILLER_0_0_221
*177 FILLER_0_0_225
*178 FILLER_0_0_237
*179 FILLER_0_0_249
*180 FILLER_0_0_253
*181 FILLER_0_0_265
*182 FILLER_0_0_27
*183 FILLER_0_0_277
*184 FILLER_0_0_281
*185 FILLER_0_0_29
*186 FILLER_0_0_293
*187 FILLER_0_0_3
*188 FILLER_0_0_305
*189 FILLER_0_0_309
*190 FILLER_0_0_321
*191 FILLER_0_0_333
*192 FILLER_0_0_41
*193 FILLER_0_0_53
*194 FILLER_0_0_57
*195 FILLER_0_0_69
*196 FILLER_0_0_81
*197 FILLER_0_0_85
*198 FILLER_0_0_97
*199 FILLER_0_10_109
*200 FILLER_0_10_121
*201 FILLER_0_10_133
*202 FILLER_0_10_139
*203 FILLER_0_10_141
*204 FILLER_0_10_15
*205 FILLER_0_10_153
*206 FILLER_0_10_165
*207 FILLER_0_10_177
*208 FILLER_0_10_189
*209 FILLER_0_10_195
*210 FILLER_0_10_197
*211 FILLER_0_10_209
*212 FILLER_0_10_221
*213 FILLER_0_10_233
*214 FILLER_0_10_245
*215 FILLER_0_10_251
*216 FILLER_0_10_253
*217 FILLER_0_10_265
*218 FILLER_0_10_27
*219 FILLER_0_10_277
*220 FILLER_0_10_289
*221 FILLER_0_10_29
*222 FILLER_0_10_3
*223 FILLER_0_10_301
*224 FILLER_0_10_307
*225 FILLER_0_10_309
*226 FILLER_0_10_321
*227 FILLER_0_10_333
*228 FILLER_0_10_41
*229 FILLER_0_10_53
*230 FILLER_0_10_65
*231 FILLER_0_10_77
*232 FILLER_0_10_83
*233 FILLER_0_10_85
*234 FILLER_0_10_97
*235 FILLER_0_11_105
*236 FILLER_0_11_111
*237 FILLER_0_11_113
*238 FILLER_0_11_125
*239 FILLER_0_11_137
*240 FILLER_0_11_149
*241 FILLER_0_11_15
*242 FILLER_0_11_161
*243 FILLER_0_11_167
*244 FILLER_0_11_169
*245 FILLER_0_11_181
*246 FILLER_0_11_193
*247 FILLER_0_11_205
*248 FILLER_0_11_217
*249 FILLER_0_11_223
*250 FILLER_0_11_225
*251 FILLER_0_11_237
*252 FILLER_0_11_249
*253 FILLER_0_11_261
*254 FILLER_0_11_27
*255 FILLER_0_11_273
*256 FILLER_0_11_279
*257 FILLER_0_11_281
*258 FILLER_0_11_293
*259 FILLER_0_11_3
*260 FILLER_0_11_305
*261 FILLER_0_11_317
*262 FILLER_0_11_329
*263 FILLER_0_11_39
*264 FILLER_0_11_51
*265 FILLER_0_11_55
*266 FILLER_0_11_57
*267 FILLER_0_11_69
*268 FILLER_0_11_81
*269 FILLER_0_11_93
*270 FILLER_0_12_109
*271 FILLER_0_12_121
*272 FILLER_0_12_133
*273 FILLER_0_12_139
*274 FILLER_0_12_141
*275 FILLER_0_12_15
*276 FILLER_0_12_153
*277 FILLER_0_12_165
*278 FILLER_0_12_177
*279 FILLER_0_12_189
*280 FILLER_0_12_195
*281 FILLER_0_12_197
*282 FILLER_0_12_209
*283 FILLER_0_12_221
*284 FILLER_0_12_233
*285 FILLER_0_12_245
*286 FILLER_0_12_251
*287 FILLER_0_12_253
*288 FILLER_0_12_265
*289 FILLER_0_12_27
*290 FILLER_0_12_277
*291 FILLER_0_12_289
*292 FILLER_0_12_29
*293 FILLER_0_12_3
*294 FILLER_0_12_301
*295 FILLER_0_12_307
*296 FILLER_0_12_309
*297 FILLER_0_12_321
*298 FILLER_0_12_333
*299 FILLER_0_12_41
*300 FILLER_0_12_53
*301 FILLER_0_12_65
*302 FILLER_0_12_77
*303 FILLER_0_12_83
*304 FILLER_0_12_85
*305 FILLER_0_12_97
*306 FILLER_0_13_105
*307 FILLER_0_13_111
*308 FILLER_0_13_113
*309 FILLER_0_13_125
*310 FILLER_0_13_137
*311 FILLER_0_13_149
*312 FILLER_0_13_15
*313 FILLER_0_13_161
*314 FILLER_0_13_167
*315 FILLER_0_13_169
*316 FILLER_0_13_181
*317 FILLER_0_13_193
*318 FILLER_0_13_205
*319 FILLER_0_13_217
*320 FILLER_0_13_223
*321 FILLER_0_13_225
*322 FILLER_0_13_237
*323 FILLER_0_13_249
*324 FILLER_0_13_261
*325 FILLER_0_13_27
*326 FILLER_0_13_273
*327 FILLER_0_13_279
*328 FILLER_0_13_281
*329 FILLER_0_13_293
*330 FILLER_0_13_3
*331 FILLER_0_13_305
*332 FILLER_0_13_317
*333 FILLER_0_13_329
*334 FILLER_0_13_39
*335 FILLER_0_13_51
*336 FILLER_0_13_55
*337 FILLER_0_13_57
*338 FILLER_0_13_69
*339 FILLER_0_13_81
*340 FILLER_0_13_93
*341 FILLER_0_14_109
*342 FILLER_0_14_121
*343 FILLER_0_14_133
*344 FILLER_0_14_139
*345 FILLER_0_14_141
*346 FILLER_0_14_15
*347 FILLER_0_14_153
*348 FILLER_0_14_165
*349 FILLER_0_14_177
*350 FILLER_0_14_189
*351 FILLER_0_14_195
*352 FILLER_0_14_197
*353 FILLER_0_14_209
*354 FILLER_0_14_221
*355 FILLER_0_14_233
*356 FILLER_0_14_245
*357 FILLER_0_14_251
*358 FILLER_0_14_253
*359 FILLER_0_14_265
*360 FILLER_0_14_27
*361 FILLER_0_14_277
*362 FILLER_0_14_289
*363 FILLER_0_14_29
*364 FILLER_0_14_3
*365 FILLER_0_14_301
*366 FILLER_0_14_307
*367 FILLER_0_14_309
*368 FILLER_0_14_321
*369 FILLER_0_14_333
*370 FILLER_0_14_41
*371 FILLER_0_14_53
*372 FILLER_0_14_65
*373 FILLER_0_14_77
*374 FILLER_0_14_83
*375 FILLER_0_14_85
*376 FILLER_0_14_97
*377 FILLER_0_15_105
*378 FILLER_0_15_111
*379 FILLER_0_15_113
*380 FILLER_0_15_125
*381 FILLER_0_15_137
*382 FILLER_0_15_149
*383 FILLER_0_15_15
*384 FILLER_0_15_161
*385 FILLER_0_15_167
*386 FILLER_0_15_169
*387 FILLER_0_15_181
*388 FILLER_0_15_193
*389 FILLER_0_15_205
*390 FILLER_0_15_217
*391 FILLER_0_15_223
*392 FILLER_0_15_225
*393 FILLER_0_15_237
*394 FILLER_0_15_249
*395 FILLER_0_15_261
*396 FILLER_0_15_27
*397 FILLER_0_15_273
*398 FILLER_0_15_279
*399 FILLER_0_15_281
*400 FILLER_0_15_293
*401 FILLER_0_15_3
*402 FILLER_0_15_305
*403 FILLER_0_15_317
*404 FILLER_0_15_329
*405 FILLER_0_15_39
*406 FILLER_0_15_51
*407 FILLER_0_15_55
*408 FILLER_0_15_57
*409 FILLER_0_15_69
*410 FILLER_0_15_81
*411 FILLER_0_15_93
*412 FILLER_0_16_109
*413 FILLER_0_16_121
*414 FILLER_0_16_133
*415 FILLER_0_16_139
*416 FILLER_0_16_141
*417 FILLER_0_16_15
*418 FILLER_0_16_153
*419 FILLER_0_16_165
*420 FILLER_0_16_177
*421 FILLER_0_16_189
*422 FILLER_0_16_195
*423 FILLER_0_16_197
*424 FILLER_0_16_209
*425 FILLER_0_16_221
*426 FILLER_0_16_233
*427 FILLER_0_16_245
*428 FILLER_0_16_251
*429 FILLER_0_16_253
*430 FILLER_0_16_265
*431 FILLER_0_16_27
*432 FILLER_0_16_277
*433 FILLER_0_16_289
*434 FILLER_0_16_29
*435 FILLER_0_16_3
*436 FILLER_0_16_301
*437 FILLER_0_16_307
*438 FILLER_0_16_309
*439 FILLER_0_16_321
*440 FILLER_0_16_333
*441 FILLER_0_16_41
*442 FILLER_0_16_53
*443 FILLER_0_16_65
*444 FILLER_0_16_77
*445 FILLER_0_16_83
*446 FILLER_0_16_85
*447 FILLER_0_16_97
*448 FILLER_0_17_105
*449 FILLER_0_17_111
*450 FILLER_0_17_113
*451 FILLER_0_17_125
*452 FILLER_0_17_137
*453 FILLER_0_17_149
*454 FILLER_0_17_15
*455 FILLER_0_17_161
*456 FILLER_0_17_167
*457 FILLER_0_17_169
*458 FILLER_0_17_181
*459 FILLER_0_17_193
*460 FILLER_0_17_205
*461 FILLER_0_17_217
*462 FILLER_0_17_223
*463 FILLER_0_17_225
*464 FILLER_0_17_237
*465 FILLER_0_17_249
*466 FILLER_0_17_261
*467 FILLER_0_17_27
*468 FILLER_0_17_273
*469 FILLER_0_17_279
*470 FILLER_0_17_281
*471 FILLER_0_17_293
*472 FILLER_0_17_3
*473 FILLER_0_17_305
*474 FILLER_0_17_317
*475 FILLER_0_17_329
*476 FILLER_0_17_39
*477 FILLER_0_17_51
*478 FILLER_0_17_55
*479 FILLER_0_17_57
*480 FILLER_0_17_69
*481 FILLER_0_17_81
*482 FILLER_0_17_93
*483 FILLER_0_18_109
*484 FILLER_0_18_121
*485 FILLER_0_18_133
*486 FILLER_0_18_139
*487 FILLER_0_18_141
*488 FILLER_0_18_15
*489 FILLER_0_18_153
*490 FILLER_0_18_165
*491 FILLER_0_18_177
*492 FILLER_0_18_189
*493 FILLER_0_18_195
*494 FILLER_0_18_197
*495 FILLER_0_18_209
*496 FILLER_0_18_221
*497 FILLER_0_18_233
*498 FILLER_0_18_245
*499 FILLER_0_18_251
*500 FILLER_0_18_253
*501 FILLER_0_18_265
*502 FILLER_0_18_27
*503 FILLER_0_18_277
*504 FILLER_0_18_289
*505 FILLER_0_18_29
*506 FILLER_0_18_3
*507 FILLER_0_18_301
*508 FILLER_0_18_307
*509 FILLER_0_18_309
*510 FILLER_0_18_321
*511 FILLER_0_18_333
*512 FILLER_0_18_41
*513 FILLER_0_18_53
*514 FILLER_0_18_65
*515 FILLER_0_18_77
*516 FILLER_0_18_83
*517 FILLER_0_18_85
*518 FILLER_0_18_97
*519 FILLER_0_19_105
*520 FILLER_0_19_111
*521 FILLER_0_19_113
*522 FILLER_0_19_125
*523 FILLER_0_19_137
*524 FILLER_0_19_149
*525 FILLER_0_19_15
*526 FILLER_0_19_161
*527 FILLER_0_19_167
*528 FILLER_0_19_169
*529 FILLER_0_19_181
*530 FILLER_0_19_193
*531 FILLER_0_19_205
*532 FILLER_0_19_217
*533 FILLER_0_19_223
*534 FILLER_0_19_225
*535 FILLER_0_19_237
*536 FILLER_0_19_249
*537 FILLER_0_19_261
*538 FILLER_0_19_27
*539 FILLER_0_19_273
*540 FILLER_0_19_279
*541 FILLER_0_19_281
*542 FILLER_0_19_293
*543 FILLER_0_19_3
*544 FILLER_0_19_305
*545 FILLER_0_19_317
*546 FILLER_0_19_329
*547 FILLER_0_19_39
*548 FILLER_0_19_51
*549 FILLER_0_19_55
*550 FILLER_0_19_57
*551 FILLER_0_19_69
*552 FILLER_0_19_81
*553 FILLER_0_19_93
*554 FILLER_0_1_105
*555 FILLER_0_1_111
*556 FILLER_0_1_113
*557 FILLER_0_1_125
*558 FILLER_0_1_137
*559 FILLER_0_1_149
*560 FILLER_0_1_15
*561 FILLER_0_1_161
*562 FILLER_0_1_167
*563 FILLER_0_1_169
*564 FILLER_0_1_181
*565 FILLER_0_1_193
*566 FILLER_0_1_205
*567 FILLER_0_1_217
*568 FILLER_0_1_223
*569 FILLER_0_1_225
*570 FILLER_0_1_237
*571 FILLER_0_1_249
*572 FILLER_0_1_261
*573 FILLER_0_1_27
*574 FILLER_0_1_273
*575 FILLER_0_1_279
*576 FILLER_0_1_281
*577 FILLER_0_1_293
*578 FILLER_0_1_3
*579 FILLER_0_1_305
*580 FILLER_0_1_317
*581 FILLER_0_1_329
*582 FILLER_0_1_39
*583 FILLER_0_1_51
*584 FILLER_0_1_55
*585 FILLER_0_1_57
*586 FILLER_0_1_69
*587 FILLER_0_1_81
*588 FILLER_0_1_93
*589 FILLER_0_20_109
*590 FILLER_0_20_121
*591 FILLER_0_20_133
*592 FILLER_0_20_139
*593 FILLER_0_20_141
*594 FILLER_0_20_15
*595 FILLER_0_20_153
*596 FILLER_0_20_165
*597 FILLER_0_20_177
*598 FILLER_0_20_189
*599 FILLER_0_20_195
*600 FILLER_0_20_197
*601 FILLER_0_20_209
*602 FILLER_0_20_221
*603 FILLER_0_20_233
*604 FILLER_0_20_245
*605 FILLER_0_20_251
*606 FILLER_0_20_253
*607 FILLER_0_20_265
*608 FILLER_0_20_27
*609 FILLER_0_20_277
*610 FILLER_0_20_289
*611 FILLER_0_20_29
*612 FILLER_0_20_3
*613 FILLER_0_20_301
*614 FILLER_0_20_307
*615 FILLER_0_20_309
*616 FILLER_0_20_321
*617 FILLER_0_20_333
*618 FILLER_0_20_41
*619 FILLER_0_20_53
*620 FILLER_0_20_65
*621 FILLER_0_20_77
*622 FILLER_0_20_83
*623 FILLER_0_20_85
*624 FILLER_0_20_97
*625 FILLER_0_21_105
*626 FILLER_0_21_111
*627 FILLER_0_21_113
*628 FILLER_0_21_125
*629 FILLER_0_21_137
*630 FILLER_0_21_149
*631 FILLER_0_21_15
*632 FILLER_0_21_161
*633 FILLER_0_21_167
*634 FILLER_0_21_169
*635 FILLER_0_21_181
*636 FILLER_0_21_193
*637 FILLER_0_21_205
*638 FILLER_0_21_217
*639 FILLER_0_21_223
*640 FILLER_0_21_225
*641 FILLER_0_21_237
*642 FILLER_0_21_249
*643 FILLER_0_21_261
*644 FILLER_0_21_27
*645 FILLER_0_21_273
*646 FILLER_0_21_279
*647 FILLER_0_21_281
*648 FILLER_0_21_293
*649 FILLER_0_21_3
*650 FILLER_0_21_305
*651 FILLER_0_21_317
*652 FILLER_0_21_329
*653 FILLER_0_21_39
*654 FILLER_0_21_51
*655 FILLER_0_21_55
*656 FILLER_0_21_57
*657 FILLER_0_21_69
*658 FILLER_0_21_81
*659 FILLER_0_21_93
*660 FILLER_0_22_109
*661 FILLER_0_22_121
*662 FILLER_0_22_133
*663 FILLER_0_22_139
*664 FILLER_0_22_141
*665 FILLER_0_22_15
*666 FILLER_0_22_153
*667 FILLER_0_22_165
*668 FILLER_0_22_177
*669 FILLER_0_22_189
*670 FILLER_0_22_195
*671 FILLER_0_22_197
*672 FILLER_0_22_209
*673 FILLER_0_22_221
*674 FILLER_0_22_233
*675 FILLER_0_22_245
*676 FILLER_0_22_251
*677 FILLER_0_22_253
*678 FILLER_0_22_265
*679 FILLER_0_22_27
*680 FILLER_0_22_277
*681 FILLER_0_22_289
*682 FILLER_0_22_29
*683 FILLER_0_22_3
*684 FILLER_0_22_301
*685 FILLER_0_22_307
*686 FILLER_0_22_309
*687 FILLER_0_22_321
*688 FILLER_0_22_333
*689 FILLER_0_22_41
*690 FILLER_0_22_53
*691 FILLER_0_22_65
*692 FILLER_0_22_77
*693 FILLER_0_22_83
*694 FILLER_0_22_85
*695 FILLER_0_22_97
*696 FILLER_0_23_105
*697 FILLER_0_23_111
*698 FILLER_0_23_113
*699 FILLER_0_23_125
*700 FILLER_0_23_137
*701 FILLER_0_23_149
*702 FILLER_0_23_15
*703 FILLER_0_23_161
*704 FILLER_0_23_167
*705 FILLER_0_23_169
*706 FILLER_0_23_181
*707 FILLER_0_23_193
*708 FILLER_0_23_205
*709 FILLER_0_23_217
*710 FILLER_0_23_223
*711 FILLER_0_23_225
*712 FILLER_0_23_237
*713 FILLER_0_23_249
*714 FILLER_0_23_261
*715 FILLER_0_23_27
*716 FILLER_0_23_273
*717 FILLER_0_23_279
*718 FILLER_0_23_281
*719 FILLER_0_23_293
*720 FILLER_0_23_3
*721 FILLER_0_23_305
*722 FILLER_0_23_317
*723 FILLER_0_23_329
*724 FILLER_0_23_39
*725 FILLER_0_23_51
*726 FILLER_0_23_55
*727 FILLER_0_23_57
*728 FILLER_0_23_69
*729 FILLER_0_23_81
*730 FILLER_0_23_93
*731 FILLER_0_24_109
*732 FILLER_0_24_121
*733 FILLER_0_24_133
*734 FILLER_0_24_139
*735 FILLER_0_24_141
*736 FILLER_0_24_15
*737 FILLER_0_24_153
*738 FILLER_0_24_165
*739 FILLER_0_24_177
*740 FILLER_0_24_189
*741 FILLER_0_24_195
*742 FILLER_0_24_197
*743 FILLER_0_24_209
*744 FILLER_0_24_221
*745 FILLER_0_24_233
*746 FILLER_0_24_245
*747 FILLER_0_24_251
*748 FILLER_0_24_253
*749 FILLER_0_24_265
*750 FILLER_0_24_27
*751 FILLER_0_24_277
*752 FILLER_0_24_289
*753 FILLER_0_24_29
*754 FILLER_0_24_3
*755 FILLER_0_24_301
*756 FILLER_0_24_307
*757 FILLER_0_24_309
*758 FILLER_0_24_321
*759 FILLER_0_24_333
*760 FILLER_0_24_41
*761 FILLER_0_24_53
*762 FILLER_0_24_65
*763 FILLER_0_24_77
*764 FILLER_0_24_83
*765 FILLER_0_24_85
*766 FILLER_0_24_97
*767 FILLER_0_25_105
*768 FILLER_0_25_111
*769 FILLER_0_25_113
*770 FILLER_0_25_125
*771 FILLER_0_25_137
*772 FILLER_0_25_149
*773 FILLER_0_25_15
*774 FILLER_0_25_161
*775 FILLER_0_25_167
*776 FILLER_0_25_169
*777 FILLER_0_25_181
*778 FILLER_0_25_193
*779 FILLER_0_25_205
*780 FILLER_0_25_217
*781 FILLER_0_25_223
*782 FILLER_0_25_225
*783 FILLER_0_25_237
*784 FILLER_0_25_249
*785 FILLER_0_25_261
*786 FILLER_0_25_27
*787 FILLER_0_25_273
*788 FILLER_0_25_279
*789 FILLER_0_25_281
*790 FILLER_0_25_293
*791 FILLER_0_25_3
*792 FILLER_0_25_305
*793 FILLER_0_25_317
*794 FILLER_0_25_329
*795 FILLER_0_25_39
*796 FILLER_0_25_51
*797 FILLER_0_25_55
*798 FILLER_0_25_57
*799 FILLER_0_25_69
*800 FILLER_0_25_81
*801 FILLER_0_25_93
*802 FILLER_0_26_109
*803 FILLER_0_26_121
*804 FILLER_0_26_133
*805 FILLER_0_26_139
*806 FILLER_0_26_141
*807 FILLER_0_26_15
*808 FILLER_0_26_153
*809 FILLER_0_26_165
*810 FILLER_0_26_177
*811 FILLER_0_26_189
*812 FILLER_0_26_195
*813 FILLER_0_26_197
*814 FILLER_0_26_209
*815 FILLER_0_26_221
*816 FILLER_0_26_233
*817 FILLER_0_26_245
*818 FILLER_0_26_251
*819 FILLER_0_26_253
*820 FILLER_0_26_265
*821 FILLER_0_26_27
*822 FILLER_0_26_277
*823 FILLER_0_26_289
*824 FILLER_0_26_29
*825 FILLER_0_26_3
*826 FILLER_0_26_301
*827 FILLER_0_26_307
*828 FILLER_0_26_309
*829 FILLER_0_26_321
*830 FILLER_0_26_333
*831 FILLER_0_26_41
*832 FILLER_0_26_53
*833 FILLER_0_26_65
*834 FILLER_0_26_77
*835 FILLER_0_26_83
*836 FILLER_0_26_85
*837 FILLER_0_26_97
*838 FILLER_0_27_105
*839 FILLER_0_27_111
*840 FILLER_0_27_113
*841 FILLER_0_27_125
*842 FILLER_0_27_137
*843 FILLER_0_27_149
*844 FILLER_0_27_15
*845 FILLER_0_27_161
*846 FILLER_0_27_167
*847 FILLER_0_27_169
*848 FILLER_0_27_181
*849 FILLER_0_27_193
*850 FILLER_0_27_205
*851 FILLER_0_27_217
*852 FILLER_0_27_223
*853 FILLER_0_27_225
*854 FILLER_0_27_237
*855 FILLER_0_27_249
*856 FILLER_0_27_261
*857 FILLER_0_27_27
*858 FILLER_0_27_273
*859 FILLER_0_27_279
*860 FILLER_0_27_281
*861 FILLER_0_27_293
*862 FILLER_0_27_3
*863 FILLER_0_27_305
*864 FILLER_0_27_317
*865 FILLER_0_27_329
*866 FILLER_0_27_39
*867 FILLER_0_27_51
*868 FILLER_0_27_55
*869 FILLER_0_27_57
*870 FILLER_0_27_69
*871 FILLER_0_27_81
*872 FILLER_0_27_93
*873 FILLER_0_28_109
*874 FILLER_0_28_121
*875 FILLER_0_28_133
*876 FILLER_0_28_139
*877 FILLER_0_28_141
*878 FILLER_0_28_15
*879 FILLER_0_28_153
*880 FILLER_0_28_165
*881 FILLER_0_28_177
*882 FILLER_0_28_189
*883 FILLER_0_28_195
*884 FILLER_0_28_197
*885 FILLER_0_28_209
*886 FILLER_0_28_221
*887 FILLER_0_28_233
*888 FILLER_0_28_245
*889 FILLER_0_28_251
*890 FILLER_0_28_253
*891 FILLER_0_28_265
*892 FILLER_0_28_27
*893 FILLER_0_28_277
*894 FILLER_0_28_289
*895 FILLER_0_28_29
*896 FILLER_0_28_3
*897 FILLER_0_28_301
*898 FILLER_0_28_307
*899 FILLER_0_28_309
*900 FILLER_0_28_321
*901 FILLER_0_28_333
*902 FILLER_0_28_41
*903 FILLER_0_28_53
*904 FILLER_0_28_65
*905 FILLER_0_28_77
*906 FILLER_0_28_83
*907 FILLER_0_28_85
*908 FILLER_0_28_97
*909 FILLER_0_29_105
*910 FILLER_0_29_111
*911 FILLER_0_29_135
*912 FILLER_0_29_147
*913 FILLER_0_29_15
*914 FILLER_0_29_159
*915 FILLER_0_29_167
*916 FILLER_0_29_169
*917 FILLER_0_29_181
*918 FILLER_0_29_193
*919 FILLER_0_29_205
*920 FILLER_0_29_217
*921 FILLER_0_29_223
*922 FILLER_0_29_225
*923 FILLER_0_29_237
*924 FILLER_0_29_249
*925 FILLER_0_29_261
*926 FILLER_0_29_27
*927 FILLER_0_29_273
*928 FILLER_0_29_279
*929 FILLER_0_29_281
*930 FILLER_0_29_293
*931 FILLER_0_29_3
*932 FILLER_0_29_305
*933 FILLER_0_29_317
*934 FILLER_0_29_329
*935 FILLER_0_29_39
*936 FILLER_0_29_51
*937 FILLER_0_29_55
*938 FILLER_0_29_57
*939 FILLER_0_29_69
*940 FILLER_0_29_81
*941 FILLER_0_29_93
*942 FILLER_0_2_109
*943 FILLER_0_2_121
*944 FILLER_0_2_133
*945 FILLER_0_2_139
*946 FILLER_0_2_141
*947 FILLER_0_2_15
*948 FILLER_0_2_153
*949 FILLER_0_2_165
*950 FILLER_0_2_177
*951 FILLER_0_2_189
*952 FILLER_0_2_195
*953 FILLER_0_2_197
*954 FILLER_0_2_209
*955 FILLER_0_2_221
*956 FILLER_0_2_233
*957 FILLER_0_2_245
*958 FILLER_0_2_251
*959 FILLER_0_2_253
*960 FILLER_0_2_265
*961 FILLER_0_2_27
*962 FILLER_0_2_277
*963 FILLER_0_2_289
*964 FILLER_0_2_29
*965 FILLER_0_2_3
*966 FILLER_0_2_301
*967 FILLER_0_2_307
*968 FILLER_0_2_309
*969 FILLER_0_2_321
*970 FILLER_0_2_333
*971 FILLER_0_2_41
*972 FILLER_0_2_53
*973 FILLER_0_2_65
*974 FILLER_0_2_77
*975 FILLER_0_2_83
*976 FILLER_0_2_85
*977 FILLER_0_2_97
*978 FILLER_0_30_103
*979 FILLER_0_30_136
*980 FILLER_0_30_141
*981 FILLER_0_30_149
*982 FILLER_0_30_15
*983 FILLER_0_30_166
*984 FILLER_0_30_178
*985 FILLER_0_30_190
*986 FILLER_0_30_197
*987 FILLER_0_30_209
*988 FILLER_0_30_221
*989 FILLER_0_30_233
*990 FILLER_0_30_245
*991 FILLER_0_30_251
*992 FILLER_0_30_253
*993 FILLER_0_30_265
*994 FILLER_0_30_27
*995 FILLER_0_30_277
*996 FILLER_0_30_289
*997 FILLER_0_30_29
*998 FILLER_0_30_3
*999 FILLER_0_30_301
*1000 FILLER_0_30_307
*1001 FILLER_0_30_309
*1002 FILLER_0_30_321
*1003 FILLER_0_30_333
*1004 FILLER_0_30_41
*1005 FILLER_0_30_53
*1006 FILLER_0_30_65
*1007 FILLER_0_30_77
*1008 FILLER_0_30_83
*1009 FILLER_0_30_85
*1010 FILLER_0_30_97
*1011 FILLER_0_31_113
*1012 FILLER_0_31_131
*1013 FILLER_0_31_149
*1014 FILLER_0_31_15
*1015 FILLER_0_31_177
*1016 FILLER_0_31_189
*1017 FILLER_0_31_201
*1018 FILLER_0_31_213
*1019 FILLER_0_31_221
*1020 FILLER_0_31_225
*1021 FILLER_0_31_237
*1022 FILLER_0_31_249
*1023 FILLER_0_31_261
*1024 FILLER_0_31_27
*1025 FILLER_0_31_273
*1026 FILLER_0_31_279
*1027 FILLER_0_31_281
*1028 FILLER_0_31_293
*1029 FILLER_0_31_3
*1030 FILLER_0_31_305
*1031 FILLER_0_31_317
*1032 FILLER_0_31_329
*1033 FILLER_0_31_39
*1034 FILLER_0_31_51
*1035 FILLER_0_31_55
*1036 FILLER_0_31_57
*1037 FILLER_0_31_69
*1038 FILLER_0_31_86
*1039 FILLER_0_31_94
*1040 FILLER_0_32_100
*1041 FILLER_0_32_126
*1042 FILLER_0_32_15
*1043 FILLER_0_32_169
*1044 FILLER_0_32_181
*1045 FILLER_0_32_193
*1046 FILLER_0_32_197
*1047 FILLER_0_32_209
*1048 FILLER_0_32_221
*1049 FILLER_0_32_233
*1050 FILLER_0_32_245
*1051 FILLER_0_32_251
*1052 FILLER_0_32_253
*1053 FILLER_0_32_265
*1054 FILLER_0_32_27
*1055 FILLER_0_32_277
*1056 FILLER_0_32_289
*1057 FILLER_0_32_29
*1058 FILLER_0_32_3
*1059 FILLER_0_32_301
*1060 FILLER_0_32_307
*1061 FILLER_0_32_309
*1062 FILLER_0_32_321
*1063 FILLER_0_32_333
*1064 FILLER_0_32_41
*1065 FILLER_0_32_53
*1066 FILLER_0_32_65
*1067 FILLER_0_33_104
*1068 FILLER_0_33_137
*1069 FILLER_0_33_15
*1070 FILLER_0_33_159
*1071 FILLER_0_33_167
*1072 FILLER_0_33_169
*1073 FILLER_0_33_181
*1074 FILLER_0_33_193
*1075 FILLER_0_33_205
*1076 FILLER_0_33_217
*1077 FILLER_0_33_223
*1078 FILLER_0_33_225
*1079 FILLER_0_33_237
*1080 FILLER_0_33_249
*1081 FILLER_0_33_261
*1082 FILLER_0_33_27
*1083 FILLER_0_33_273
*1084 FILLER_0_33_279
*1085 FILLER_0_33_281
*1086 FILLER_0_33_293
*1087 FILLER_0_33_3
*1088 FILLER_0_33_305
*1089 FILLER_0_33_317
*1090 FILLER_0_33_329
*1091 FILLER_0_33_39
*1092 FILLER_0_33_51
*1093 FILLER_0_33_55
*1094 FILLER_0_33_57
*1095 FILLER_0_34_111
*1096 FILLER_0_34_116
*1097 FILLER_0_34_139
*1098 FILLER_0_34_141
*1099 FILLER_0_34_155
*1100 FILLER_0_34_167
*1101 FILLER_0_34_179
*1102 FILLER_0_34_191
*1103 FILLER_0_34_200
*1104 FILLER_0_34_212
*1105 FILLER_0_34_22
*1106 FILLER_0_34_224
*1107 FILLER_0_34_236
*1108 FILLER_0_34_248
*1109 FILLER_0_34_253
*1110 FILLER_0_34_265
*1111 FILLER_0_34_277
*1112 FILLER_0_34_289
*1113 FILLER_0_34_29
*1114 FILLER_0_34_3
*1115 FILLER_0_34_301
*1116 FILLER_0_34_307
*1117 FILLER_0_34_309
*1118 FILLER_0_34_321
*1119 FILLER_0_34_333
*1120 FILLER_0_34_38
*1121 FILLER_0_34_50
*1122 FILLER_0_34_62
*1123 FILLER_0_34_85
*1124 FILLER_0_35_106
*1125 FILLER_0_35_113
*1126 FILLER_0_35_121
*1127 FILLER_0_35_138
*1128 FILLER_0_35_160
*1129 FILLER_0_35_169
*1130 FILLER_0_35_181
*1131 FILLER_0_35_185
*1132 FILLER_0_35_197
*1133 FILLER_0_35_217
*1134 FILLER_0_35_223
*1135 FILLER_0_35_225
*1136 FILLER_0_35_23
*1137 FILLER_0_35_233
*1138 FILLER_0_35_241
*1139 FILLER_0_35_247
*1140 FILLER_0_35_259
*1141 FILLER_0_35_270
*1142 FILLER_0_35_278
*1143 FILLER_0_35_281
*1144 FILLER_0_35_293
*1145 FILLER_0_35_3
*1146 FILLER_0_35_305
*1147 FILLER_0_35_317
*1148 FILLER_0_35_329
*1149 FILLER_0_35_41
*1150 FILLER_0_35_45
*1151 FILLER_0_35_53
*1152 FILLER_0_35_57
*1153 FILLER_0_35_69
*1154 FILLER_0_35_73
*1155 FILLER_0_36_115
*1156 FILLER_0_36_139
*1157 FILLER_0_36_141
*1158 FILLER_0_36_145
*1159 FILLER_0_36_194
*1160 FILLER_0_36_222
*1161 FILLER_0_36_230
*1162 FILLER_0_36_27
*1163 FILLER_0_36_29
*1164 FILLER_0_36_299
*1165 FILLER_0_36_3
*1166 FILLER_0_36_307
*1167 FILLER_0_36_309
*1168 FILLER_0_36_321
*1169 FILLER_0_36_333
*1170 FILLER_0_36_83
*1171 FILLER_0_37_111
*1172 FILLER_0_37_113
*1173 FILLER_0_37_120
*1174 FILLER_0_37_145
*1175 FILLER_0_37_15
*1176 FILLER_0_37_153
*1177 FILLER_0_37_169
*1178 FILLER_0_37_173
*1179 FILLER_0_37_187
*1180 FILLER_0_37_213
*1181 FILLER_0_37_221
*1182 FILLER_0_37_253
*1183 FILLER_0_37_276
*1184 FILLER_0_37_3
*1185 FILLER_0_37_307
*1186 FILLER_0_37_319
*1187 FILLER_0_37_331
*1188 FILLER_0_37_34
*1189 FILLER_0_37_38
*1190 FILLER_0_37_46
*1191 FILLER_0_37_54
*1192 FILLER_0_37_73
*1193 FILLER_0_38_10
*1194 FILLER_0_38_109
*1195 FILLER_0_38_113
*1196 FILLER_0_38_118
*1197 FILLER_0_38_122
*1198 FILLER_0_38_126
*1199 FILLER_0_38_135
*1200 FILLER_0_38_139
*1201 FILLER_0_38_14
*1202 FILLER_0_38_141
*1203 FILLER_0_38_153
*1204 FILLER_0_38_165
*1205 FILLER_0_38_175
*1206 FILLER_0_38_18
*1207 FILLER_0_38_187
*1208 FILLER_0_38_195
*1209 FILLER_0_38_207
*1210 FILLER_0_38_215
*1211 FILLER_0_38_22
*1212 FILLER_0_38_223
*1213 FILLER_0_38_225
*1214 FILLER_0_38_237
*1215 FILLER_0_38_241
*1216 FILLER_0_38_250
*1217 FILLER_0_38_256
*1218 FILLER_0_38_271
*1219 FILLER_0_38_278
*1220 FILLER_0_38_281
*1221 FILLER_0_38_286
*1222 FILLER_0_38_290
*1223 FILLER_0_38_294
*1224 FILLER_0_38_298
*1225 FILLER_0_38_302
*1226 FILLER_0_38_312
*1227 FILLER_0_38_319
*1228 FILLER_0_38_32
*1229 FILLER_0_38_331
*1230 FILLER_0_38_38
*1231 FILLER_0_38_42
*1232 FILLER_0_38_46
*1233 FILLER_0_38_50
*1234 FILLER_0_38_54
*1235 FILLER_0_38_57
*1236 FILLER_0_38_6
*1237 FILLER_0_38_62
*1238 FILLER_0_38_74
*1239 FILLER_0_38_78
*1240 FILLER_0_38_88
*1241 FILLER_0_38_97
*1242 FILLER_0_3_105
*1243 FILLER_0_3_111
*1244 FILLER_0_3_113
*1245 FILLER_0_3_125
*1246 FILLER_0_3_137
*1247 FILLER_0_3_149
*1248 FILLER_0_3_15
*1249 FILLER_0_3_161
*1250 FILLER_0_3_167
*1251 FILLER_0_3_169
*1252 FILLER_0_3_181
*1253 FILLER_0_3_193
*1254 FILLER_0_3_205
*1255 FILLER_0_3_217
*1256 FILLER_0_3_223
*1257 FILLER_0_3_225
*1258 FILLER_0_3_237
*1259 FILLER_0_3_249
*1260 FILLER_0_3_261
*1261 FILLER_0_3_27
*1262 FILLER_0_3_273
*1263 FILLER_0_3_279
*1264 FILLER_0_3_281
*1265 FILLER_0_3_293
*1266 FILLER_0_3_3
*1267 FILLER_0_3_305
*1268 FILLER_0_3_317
*1269 FILLER_0_3_329
*1270 FILLER_0_3_39
*1271 FILLER_0_3_51
*1272 FILLER_0_3_55
*1273 FILLER_0_3_57
*1274 FILLER_0_3_69
*1275 FILLER_0_3_81
*1276 FILLER_0_3_93
*1277 FILLER_0_4_109
*1278 FILLER_0_4_121
*1279 FILLER_0_4_133
*1280 FILLER_0_4_139
*1281 FILLER_0_4_141
*1282 FILLER_0_4_15
*1283 FILLER_0_4_153
*1284 FILLER_0_4_165
*1285 FILLER_0_4_177
*1286 FILLER_0_4_189
*1287 FILLER_0_4_195
*1288 FILLER_0_4_197
*1289 FILLER_0_4_209
*1290 FILLER_0_4_221
*1291 FILLER_0_4_233
*1292 FILLER_0_4_245
*1293 FILLER_0_4_251
*1294 FILLER_0_4_253
*1295 FILLER_0_4_265
*1296 FILLER_0_4_27
*1297 FILLER_0_4_277
*1298 FILLER_0_4_289
*1299 FILLER_0_4_29
*1300 FILLER_0_4_3
*1301 FILLER_0_4_301
*1302 FILLER_0_4_307
*1303 FILLER_0_4_309
*1304 FILLER_0_4_321
*1305 FILLER_0_4_333
*1306 FILLER_0_4_41
*1307 FILLER_0_4_53
*1308 FILLER_0_4_65
*1309 FILLER_0_4_77
*1310 FILLER_0_4_83
*1311 FILLER_0_4_85
*1312 FILLER_0_4_97
*1313 FILLER_0_5_105
*1314 FILLER_0_5_111
*1315 FILLER_0_5_113
*1316 FILLER_0_5_125
*1317 FILLER_0_5_137
*1318 FILLER_0_5_149
*1319 FILLER_0_5_15
*1320 FILLER_0_5_161
*1321 FILLER_0_5_167
*1322 FILLER_0_5_169
*1323 FILLER_0_5_181
*1324 FILLER_0_5_193
*1325 FILLER_0_5_205
*1326 FILLER_0_5_217
*1327 FILLER_0_5_223
*1328 FILLER_0_5_225
*1329 FILLER_0_5_237
*1330 FILLER_0_5_249
*1331 FILLER_0_5_261
*1332 FILLER_0_5_27
*1333 FILLER_0_5_273
*1334 FILLER_0_5_279
*1335 FILLER_0_5_281
*1336 FILLER_0_5_293
*1337 FILLER_0_5_3
*1338 FILLER_0_5_305
*1339 FILLER_0_5_317
*1340 FILLER_0_5_329
*1341 FILLER_0_5_39
*1342 FILLER_0_5_51
*1343 FILLER_0_5_55
*1344 FILLER_0_5_57
*1345 FILLER_0_5_69
*1346 FILLER_0_5_81
*1347 FILLER_0_5_93
*1348 FILLER_0_6_109
*1349 FILLER_0_6_121
*1350 FILLER_0_6_133
*1351 FILLER_0_6_139
*1352 FILLER_0_6_141
*1353 FILLER_0_6_15
*1354 FILLER_0_6_153
*1355 FILLER_0_6_165
*1356 FILLER_0_6_177
*1357 FILLER_0_6_189
*1358 FILLER_0_6_195
*1359 FILLER_0_6_197
*1360 FILLER_0_6_209
*1361 FILLER_0_6_221
*1362 FILLER_0_6_233
*1363 FILLER_0_6_245
*1364 FILLER_0_6_251
*1365 FILLER_0_6_253
*1366 FILLER_0_6_265
*1367 FILLER_0_6_27
*1368 FILLER_0_6_277
*1369 FILLER_0_6_289
*1370 FILLER_0_6_29
*1371 FILLER_0_6_3
*1372 FILLER_0_6_301
*1373 FILLER_0_6_307
*1374 FILLER_0_6_309
*1375 FILLER_0_6_321
*1376 FILLER_0_6_333
*1377 FILLER_0_6_41
*1378 FILLER_0_6_53
*1379 FILLER_0_6_65
*1380 FILLER_0_6_77
*1381 FILLER_0_6_83
*1382 FILLER_0_6_85
*1383 FILLER_0_6_97
*1384 FILLER_0_7_105
*1385 FILLER_0_7_111
*1386 FILLER_0_7_113
*1387 FILLER_0_7_125
*1388 FILLER_0_7_137
*1389 FILLER_0_7_149
*1390 FILLER_0_7_15
*1391 FILLER_0_7_161
*1392 FILLER_0_7_167
*1393 FILLER_0_7_169
*1394 FILLER_0_7_181
*1395 FILLER_0_7_193
*1396 FILLER_0_7_205
*1397 FILLER_0_7_217
*1398 FILLER_0_7_223
*1399 FILLER_0_7_225
*1400 FILLER_0_7_237
*1401 FILLER_0_7_249
*1402 FILLER_0_7_261
*1403 FILLER_0_7_27
*1404 FILLER_0_7_273
*1405 FILLER_0_7_279
*1406 FILLER_0_7_281
*1407 FILLER_0_7_293
*1408 FILLER_0_7_3
*1409 FILLER_0_7_305
*1410 FILLER_0_7_317
*1411 FILLER_0_7_329
*1412 FILLER_0_7_39
*1413 FILLER_0_7_51
*1414 FILLER_0_7_55
*1415 FILLER_0_7_57
*1416 FILLER_0_7_69
*1417 FILLER_0_7_81
*1418 FILLER_0_7_93
*1419 FILLER_0_8_109
*1420 FILLER_0_8_121
*1421 FILLER_0_8_133
*1422 FILLER_0_8_139
*1423 FILLER_0_8_141
*1424 FILLER_0_8_15
*1425 FILLER_0_8_153
*1426 FILLER_0_8_165
*1427 FILLER_0_8_177
*1428 FILLER_0_8_189
*1429 FILLER_0_8_195
*1430 FILLER_0_8_197
*1431 FILLER_0_8_209
*1432 FILLER_0_8_221
*1433 FILLER_0_8_233
*1434 FILLER_0_8_245
*1435 FILLER_0_8_251
*1436 FILLER_0_8_253
*1437 FILLER_0_8_265
*1438 FILLER_0_8_27
*1439 FILLER_0_8_277
*1440 FILLER_0_8_289
*1441 FILLER_0_8_29
*1442 FILLER_0_8_3
*1443 FILLER_0_8_301
*1444 FILLER_0_8_307
*1445 FILLER_0_8_309
*1446 FILLER_0_8_321
*1447 FILLER_0_8_333
*1448 FILLER_0_8_41
*1449 FILLER_0_8_53
*1450 FILLER_0_8_65
*1451 FILLER_0_8_77
*1452 FILLER_0_8_83
*1453 FILLER_0_8_85
*1454 FILLER_0_8_97
*1455 FILLER_0_9_105
*1456 FILLER_0_9_111
*1457 FILLER_0_9_113
*1458 FILLER_0_9_125
*1459 FILLER_0_9_137
*1460 FILLER_0_9_149
*1461 FILLER_0_9_15
*1462 FILLER_0_9_161
*1463 FILLER_0_9_167
*1464 FILLER_0_9_169
*1465 FILLER_0_9_181
*1466 FILLER_0_9_193
*1467 FILLER_0_9_205
*1468 FILLER_0_9_217
*1469 FILLER_0_9_223
*1470 FILLER_0_9_225
*1471 FILLER_0_9_237
*1472 FILLER_0_9_249
*1473 FILLER_0_9_261
*1474 FILLER_0_9_27
*1475 FILLER_0_9_273
*1476 FILLER_0_9_279
*1477 FILLER_0_9_281
*1478 FILLER_0_9_293
*1479 FILLER_0_9_3
*1480 FILLER_0_9_305
*1481 FILLER_0_9_317
*1482 FILLER_0_9_329
*1483 FILLER_0_9_39
*1484 FILLER_0_9_51
*1485 FILLER_0_9_55
*1486 FILLER_0_9_57
*1487 FILLER_0_9_69
*1488 FILLER_0_9_81
*1489 FILLER_0_9_93
*1490 PHY_EDGE_ROW_0_Left_39
*1491 PHY_EDGE_ROW_0_Right_0
*1492 PHY_EDGE_ROW_10_Left_49