*SPEF "ieee 1481-1999"
*DESIGN "tt_um_ppca"
*DATE "09:00:56 Friday April 19, 2024"
*VENDOR "The OpenROAD Project"
*PROGRAM "OpenROAD"
*VERSION "0889970d1790a2617e69f253221b8bd7626e51dc"
*DESIGN_FLOW "NAME_SCOPE LOCAL" "PIN_CAP NONE"
*DIVIDER /
*DELIMITER :
*BUS_DELIMITER []
*T_UNIT 1 NS
*C_UNIT 1 PF
*R_UNIT 1 OHM
*L_UNIT 1 HENRY

*NAME_MAP
*3 clk
*4 ena
*5 rst_n
*6 ui_in[0]
*7 ui_in[1]
*8 ui_in[2]
*9 ui_in[3]
*10 ui_in[4]
*11 ui_in[5]
*12 ui_in[6]
*13 ui_in[7]
*14 uio_in[0]
*15 uio_in[1]
*16 uio_in[2]
*17 uio_in[3]
*18 uio_in[4]
*19 uio_in[5]
*20 uio_in[6]
*21 uio_in[7]
*22 net13
*23 net14
*24 net15
*25 net16
*26 net17
*27 net18
*28 net19
*29 net20
*30 net10
*31 net11
*32 uio_out[2]
*33 uio_out[3]
*34 uio_out[4]
*35 uio_out[5]
*36 uio_out[6]
*37 uio_out[7]
*38 uo_out[0]
*39 uo_out[1]
*40 uo_out[2]
*41 uo_out[3]
*42 uo_out[4]
*43 uo_out[5]
*44 uo_out[6]
*45 net12
*46 _000_
*47 _001_
*48 _002_
*49 _003_
*50 _004_
*51 _005_
*52 _006_
*53 _007_
*54 _008_
*55 _009_
*56 _010_
*57 _011_
*58 _012_
*59 _013_
*60 _014_
*61 _015_
*62 _016_
*63 _017_
*64 _018_
*65 _019_
*66 _020_
*67 _021_
*68 _022_
*69 _023_
*70 _024_
*71 _025_
*72 _026_
*73 _027_
*74 _028_
*75 _029_
*76 _030_
*77 _031_
*78 _032_
*79 _033_
*80 _034_
*81 _035_
*82 _036_
*83 _037_
*84 _038_
*85 _039_
*86 _040_
*87 _041_
*88 _042_
*89 _043_
*90 _044_
*91 _045_
*92 _046_
*93 _047_
*94 _048_
*95 _049_
*96 _050_
*97 _051_
*98 _052_
*99 _053_
*100 _054_
*101 _055_
*102 _056_
*103 _057_
*104 _058_
*105 _059_
*106 _060_
*107 _061_
*108 _062_
*109 _063_
*110 _064_
*111 _065_
*112 _066_
*113 _067_
*114 _068_
*115 _069_
*116 _070_
*117 _071_
*118 _072_
*119 _073_
*120 _074_
*121 _075_
*122 _076_
*123 _077_
*124 _078_
*125 _079_
*126 _080_
*127 _081_
*128 _082_
*129 _083_
*130 _084_
*131 _085_
*132 _086_
*133 _087_
*134 _088_
*135 _089_
*136 _090_
*137 _091_
*138 _092_
*139 _093_
*140 _094_
*141 _095_
*142 _096_
*143 _097_
*144 _098_
*145 _099_
*146 _100_
*147 _101_
*148 _102_
*149 _103_
*150 _104_
*151 _105_
*152 _106_
*153 _107_
*154 _108_
*155 _109_
*156 _110_
*157 _111_
*158 _112_
*159 _113_
*160 _114_
*161 _115_
*162 _116_
*163 _117_
*164 _118_
*165 _119_
*166 _120_
*167 _121_
*168 _122_
*169 _123_
*170 _124_
*171 _125_
*172 _126_
*173 _127_
*174 _128_
*175 _129_
*176 _130_
*177 _131_
*178 _132_
*179 _133_
*180 _134_
*181 _135_
*182 _136_
*183 _137_
*184 _138_
*185 _139_
*186 _140_
*187 _141_
*188 _142_
*189 _143_
*190 _144_
*191 _145_
*192 _146_
*193 _147_
*194 _148_
*195 _149_
*196 _150_
*197 _151_
*198 _152_
*199 _153_
*200 _154_
*201 _155_
*202 _156_
*203 _157_
*204 _158_
*205 _159_
*206 _160_
*207 _161_
*208 _162_
*209 _163_
*210 _164_
*211 _165_
*212 _166_
*213 _167_
*214 _168_
*215 _169_
*216 _170_
*217 _171_
*218 _172_
*219 _173_
*220 _174_
*221 _175_
*222 _176_
*223 _177_
*224 _178_
*225 _179_
*226 _180_
*227 _181_
*228 _182_
*229 _183_
*230 _184_
*231 _185_
*232 _186_
*233 _187_
*234 _188_
*235 _189_
*236 _190_
*237 _191_
*238 _192_
*239 _193_
*240 _194_
*241 _195_
*242 _196_
*243 _197_
*244 _198_
*245 _199_
*246 _200_
*247 _201_
*248 _202_
*249 _203_
*250 _204_
*251 _205_
*252 _206_
*253 _207_
*254 _208_
*255 _209_
*256 _210_
*257 _211_
*258 _212_
*259 _213_
*260 _214_
*261 _215_
*262 _216_
*263 _217_
*264 _218_
*265 _219_
*266 _220_
*267 _221_
*268 _222_
*269 _223_
*270 _224_
*271 _225_
*272 _226_
*273 _227_
*274 _228_
*275 _229_
*276 _230_
*277 _231_
*278 _232_
*279 _233_
*280 _234_
*281 _235_
*282 _236_
*283 _237_
*284 _238_
*285 _239_
*286 _240_
*287 _241_
*288 _242_
*289 _243_
*290 _244_
*291 _245_
*292 _246_
*293 _247_
*294 _248_
*295 _249_
*296 _250_
*297 _251_
*298 _252_
*299 _253_
*300 _254_
*301 _255_
*302 _256_
*303 _257_
*304 _258_
*305 _259_
*306 _260_
*307 _261_
*308 _262_
*309 _263_
*310 _264_
*311 _265_
*312 _266_
*313 _267_
*314 _268_
*315 _269_
*316 _270_
*317 _271_
*318 _272_
*319 clknet_0_clk
*320 clknet_2_0__leaf_clk
*321 clknet_2_1__leaf_clk
*322 clknet_2_2__leaf_clk
*323 clknet_2_3__leaf_clk
*324 control_inst\.left_aim_reg\.last_value
*325 control_inst\.move_left_reg\.last_value
*326 control_inst\.move_right_reg\.last_value
*327 control_inst\.new_game\.q
*328 control_inst\.right_aim_reg\.last_value
*329 control_inst\.select_ff\.q\[2\]
*330 control_inst\.select_ff\.q\[3\]
*331 control_inst\.select_ff\.q\[4\]
*332 control_inst\.shoot_reg\.last_value
*333 net1
*334 net2
*335 net21
*336 net22
*337 net23
*338 net24
*339 net25
*340 net26
*341 net27
*342 net28
*343 net29
*344 net3
*345 net30
*346 net31
*347 net32
*348 net33
*349 net34
*350 net35
*351 net36
*352 net37
*353 net38
*354 net39
*355 net4
*356 net40
*357 net41
*358 net42
*359 net43
*360 net5
*361 net6
*362 net7
*363 net8
*364 net9
*365 pos_aim_inst\.aim_pos\[0\]
*366 pos_aim_inst\.aim_pos\[1\]
*367 pos_aim_inst\.aim_pos\[2\]
*368 pos_aim_inst\.x_pos\[0\]
*369 pos_aim_inst\.x_pos\[1\]
*370 pos_aim_inst\.x_pos\[2\]
*371 pos_aim_inst\.x_pos\[3\]
*372 pos_aim_inst\.x_pos\[4\]
*373 target_gen_inst\.next_rng_state\[0\]
*374 target_gen_inst\.next_rng_state\[1\]
*375 target_gen_inst\.next_rng_state\[2\]
*376 target_gen_inst\.next_rng_state\[3\]
*377 target_gen_inst\.next_rng_state\[4\]
*378 target_gen_inst\.next_rng_state\[5\]
*379 target_gen_inst\.next_rng_state\[6\]
*380 target_gen_inst\.next_rng_state\[7\]
*381 target_gen_inst\.result_valid
*382 target_gen_inst\.rng_state\[0\]
*383 target_gen_inst\.rng_state\[1\]
*384 target_gen_inst\.rng_state\[2\]
*385 target_gen_inst\.rng_state\[3\]
*386 target_gen_inst\.rng_state\[4\]
*387 target_gen_inst\.rng_state\[5\]
*388 target_gen_inst\.rng_state\[6\]
*389 target_gen_inst\.rng_state\[7\]
*390 target_gen_inst\.target_y\[0\]
*391 target_gen_inst\.target_y\[1\]
*392 tc\.cur_x\[0\]
*393 tc\.cur_x\[1\]
*394 tc\.cur_x\[2\]
*395 tc\.cur_x\[3\]
*396 tc\.cur_x\[4\]
*397 tc\.cur_y\[0\]
*398 tc\.cur_y\[1\]
*399 tc\.cur_y\[2\]
*400 tc\.cur_y\[3\]
*401 tc\.cur_y\[4\]
*402 tc\.direction
*403 tc\.hit
*404 tc\.rise\[0\]
*405 tc\.rise\[1\]
*406 tc\.run\[0\]
*407 tc\.run\[1\]
*408 tc\.state\[0\]
*409 tc\.state\[1\]
*410 FILLER_0_0_109
*411 FILLER_0_0_113
*412 FILLER_0_0_125
*413 FILLER_0_0_137
*414 FILLER_0_0_141
*415 FILLER_0_0_15
*416 FILLER_0_0_153
*417 FILLER_0_0_165
*418 FILLER_0_0_169
*419 FILLER_0_0_181
*420 FILLER_0_0_193
*421 FILLER_0_0_197
*422 FILLER_0_0_209
*423 FILLER_0_0_221
*424 FILLER_0_0_225
*425 FILLER_0_0_237
*426 FILLER_0_0_249
*427 FILLER_0_0_253
*428 FILLER_0_0_265
*429 FILLER_0_0_27
*430 FILLER_0_0_277
*431 FILLER_0_0_281
*432 FILLER_0_0_29
*433 FILLER_0_0_293
*434 FILLER_0_0_3
*435 FILLER_0_0_305
*436 FILLER_0_0_309
*437 FILLER_0_0_321
*438 FILLER_0_0_333
*439 FILLER_0_0_41
*440 FILLER_0_0_53
*441 FILLER_0_0_57
*442 FILLER_0_0_69
*443 FILLER_0_0_81
*444 FILLER_0_0_85
*445 FILLER_0_0_97
*446 FILLER_0_10_109
*447 FILLER_0_10_121
*448 FILLER_0_10_133
*449 FILLER_0_10_139
*450 FILLER_0_10_141
*451 FILLER_0_10_15
*452 FILLER_0_10_153
*453 FILLER_0_10_165
*454 FILLER_0_10_177
*455 FILLER_0_10_189
*456 FILLER_0_10_195
*457 FILLER_0_10_197
*458 FILLER_0_10_209
*459 FILLER_0_10_221
*460 FILLER_0_10_233
*461 FILLER_0_10_245
*462 FILLER_0_10_251
*463 FILLER_0_10_253
*464 FILLER_0_10_265
*465 FILLER_0_10_27
*466 FILLER_0_10_277
*467 FILLER_0_10_289
*468 FILLER_0_10_29
*469 FILLER_0_10_3
*470 FILLER_0_10_301
*471 FILLER_0_10_307
*472 FILLER_0_10_309
*473 FILLER_0_10_321
*474 FILLER_0_10_333
*475 FILLER_0_10_41
*476 FILLER_0_10_53
*477 FILLER_0_10_65
*478 FILLER_0_10_77
*479 FILLER_0_10_83
*480 FILLER_0_10_85
*481 FILLER_0_10_97
*482 FILLER_0_11_105
*483 FILLER_0_11_111
*484 FILLER_0_11_113
*485 FILLER_0_11_125
*486 FILLER_0_11_137
*487 FILLER_0_11_149
*488 FILLER_0_11_15
*489 FILLER_0_11_161
*490 FILLER_0_11_167
*491 FILLER_0_11_169
*492 FILLER_0_11_181
*493 FILLER_0_11_193
*494 FILLER_0_11_205
*495 FILLER_0_11_217
*496 FILLER_0_11_223
*497 FILLER_0_11_225
*498 FILLER_0_11_237
*499 FILLER_0_11_249
*500 FILLER_0_11_261
*501 FILLER_0_11_27
*502 FILLER_0_11_273
*503 FILLER_0_11_279
*504 FILLER_0_11_281
*505 FILLER_0_11_293
*506 FILLER_0_11_3
*507 FILLER_0_11_305
*508 FILLER_0_11_317
*509 FILLER_0_11_329
*510 FILLER_0_11_39
*511 FILLER_0_11_51
*512 FILLER_0_11_55
*513 FILLER_0_11_57
*514 FILLER_0_11_69
*515 FILLER_0_11_81
*516 FILLER_0_11_93
*517 FILLER_0_12_109
*518 FILLER_0_12_121
*519 FILLER_0_12_133
*520 FILLER_0_12_139
*521 FILLER_0_12_141
*522 FILLER_0_12_15
*523 FILLER_0_12_153
*524 FILLER_0_12_165
*525 FILLER_0_12_177
*526 FILLER_0_12_189
*527 FILLER_0_12_195
*528 FILLER_0_12_197
*529 FILLER_0_12_209
*530 FILLER_0_12_221
*531 FILLER_0_12_233
*532 FILLER_0_12_245
*533 FILLER_0_12_251
*534 FILLER_0_12_253
*535 FILLER_0_12_265
*536 FILLER_0_12_27
*537 FILLER_0_12_277
*538 FILLER_0_12_289
*539 FILLER_0_12_29
*540 FILLER_0_12_3
*541 FILLER_0_12_301
*542 FILLER_0_12_307
*543 FILLER_0_12_309
*544 FILLER_0_12_321
*545 FILLER_0_12_333
*546 FILLER_0_12_41
*547 FILLER_0_12_53
*548 FILLER_0_12_65
*549 FILLER_0_12_77
*550 FILLER_0_12_83
*551 FILLER_0_12_85
*552 FILLER_0_12_97
*553 FILLER_0_13_105
*554 FILLER_0_13_111
*555 FILLER_0_13_113
*556 FILLER_0_13_125
*557 FILLER_0_13_137
*558 FILLER_0_13_149
*559 FILLER_0_13_15
*560 FILLER_0_13_161
*561 FILLER_0_13_167
*562 FILLER_0_13_169
*563 FILLER_0_13_181
*564 FILLER_0_13_193
*565 FILLER_0_13_205
*566 FILLER_0_13_217
*567 FILLER_0_13_223
*568 FILLER_0_13_225
*569 FILLER_0_13_237
*570 FILLER_0_13_249
*571 FILLER_0_13_261
*572 FILLER_0_13_27
*573 FILLER_0_13_273
*574 FILLER_0_13_279
*575 FILLER_0_13_281
*576 FILLER_0_13_293
*577 FILLER_0_13_3
*578 FILLER_0_13_305
*579 FILLER_0_13_317
*580 FILLER_0_13_329
*581 FILLER_0_13_39
*582 FILLER_0_13_51
*583 FILLER_0_13_55
*584 FILLER_0_13_57
*585 FILLER_0_13_69
*586 FILLER_0_13_81
*587 FILLER_0_13_93
*588 FILLER_0_14_109
*589 FILLER_0_14_121
*590 FILLER_0_14_133
*591 FILLER_0_14_139
*592 FILLER_0_14_141
*593 FILLER_0_14_15
*594 FILLER_0_14_153
*595 FILLER_0_14_165
*596 FILLER_0_14_177
*597 FILLER_0_14_189
*598 FILLER_0_14_195
*599 FILLER_0_14_197
*600 FILLER_0_14_209
*601 FILLER_0_14_221
*602 FILLER_0_14_233
*603 FILLER_0_14_245
*604 FILLER_0_14_251
*605 FILLER_0_14_253
*606 FILLER_0_14_265
*607 FILLER_0_14_27
*608 FILLER_0_14_277
*609 FILLER_0_14_289
*610 FILLER_0_14_29
*611 FILLER_0_14_3
*612 FILLER_0_14_301
*613 FILLER_0_14_307
*614 FILLER_0_14_309
*615 FILLER_0_14_321
*616 FILLER_0_14_333
*617 FILLER_0_14_41
*618 FILLER_0_14_53
*619 FILLER_0_14_65
*620 FILLER_0_14_77
*621 FILLER_0_14_83
*622 FILLER_0_14_85
*623 FILLER_0_14_97
*624 FILLER_0_15_105
*625 FILLER_0_15_111
*626 FILLER_0_15_113
*627 FILLER_0_15_125
*628 FILLER_0_15_137
*629 FILLER_0_15_149
*630 FILLER_0_15_15
*631 FILLER_0_15_161
*632 FILLER_0_15_167
*633 FILLER_0_15_169
*634 FILLER_0_15_181
*635 FILLER_0_15_193
*636 FILLER_0_15_205
*637 FILLER_0_15_217
*638 FILLER_0_15_223
*639 FILLER_0_15_225
*640 FILLER_0_15_237
*641 FILLER_0_15_249
*642 FILLER_0_15_261
*643 FILLER_0_15_27
*644 FILLER_0_15_273
*645 FILLER_0_15_279
*646 FILLER_0_15_281
*647 FILLER_0_15_293
*648 FILLER_0_15_3
*649 FILLER_0_15_305
*650 FILLER_0_15_317
*651 FILLER_0_15_329
*652 FILLER_0_15_39
*653 FILLER_0_15_51
*654 FILLER_0_15_55
*655 FILLER_0_15_57
*656 FILLER_0_15_69
*657 FILLER_0_15_81
*658 FILLER_0_15_93
*659 FILLER_0_16_109
*660 FILLER_0_16_121
*661 FILLER_0_16_133
*662 FILLER_0_16_139
*663 FILLER_0_16_141
*664 FILLER_0_16_15
*665 FILLER_0_16_153
*666 FILLER_0_16_165
*667 FILLER_0_16_177
*668 FILLER_0_16_189
*669 FILLER_0_16_195
*670 FILLER_0_16_197
*671 FILLER_0_16_209
*672 FILLER_0_16_221
*673 FILLER_0_16_233
*674 FILLER_0_16_245
*675 FILLER_0_16_251
*676 FILLER_0_16_253
*677 FILLER_0_16_265
*678 FILLER_0_16_27
*679 FILLER_0_16_277
*680 FILLER_0_16_289
*681 FILLER_0_16_29
*682 FILLER_0_16_3
*683 FILLER_0_16_301
*684 FILLER_0_16_307
*685 FILLER_0_16_309
*686 FILLER_0_16_321
*687 FILLER_0_16_333
*688 FILLER_0_16_41
*689 FILLER_0_16_53
*690 FILLER_0_16_65
*691 FILLER_0_16_77
*692 FILLER_0_16_83
*693 FILLER_0_16_85
*694 FILLER_0_16_97
*695 FILLER_0_17_105
*696 FILLER_0_17_111
*697 FILLER_0_17_113
*698 FILLER_0_17_125
*699 FILLER_0_17_137
*700 FILLER_0_17_149
*701 FILLER_0_17_15
*702 FILLER_0_17_161
*703 FILLER_0_17_167
*704 FILLER_0_17_169
*705 FILLER_0_17_181
*706 FILLER_0_17_193
*707 FILLER_0_17_205
*708 FILLER_0_17_217
*709 FILLER_0_17_223
*710 FILLER_0_17_225
*711 FILLER_0_17_237
*712 FILLER_0_17_249
*713 FILLER_0_17_261
*714 FILLER_0_17_27
*715 FILLER_0_17_273
*716 FILLER_0_17_279
*717 FILLER_0_17_281
*718 FILLER_0_17_293
*719 FILLER_0_17_3
*720 FILLER_0_17_305
*721 FILLER_0_17_317
*722 FILLER_0_17_329
*723 FILLER_0_17_39
*724 FILLER_0_17_51
*725 FILLER_0_17_55
*726 FILLER_0_17_57
*727 FILLER_0_17_69
*728 FILLER_0_17_81
*729 FILLER_0_17_93
*730 FILLER_0_18_109
*731 FILLER_0_18_121
*732 FILLER_0_18_133
*733 FILLER_0_18_139
*734 FILLER_0_18_141
*735 FILLER_0_18_15
*736 FILLER_0_18_153
*737 FILLER_0_18_165
*738 FILLER_0_18_177
*739 FILLER_0_18_189
*740 FILLER_0_18_195
*741 FILLER_0_18_197
*742 FILLER_0_18_209
*743 FILLER_0_18_221
*744 FILLER_0_18_233
*745 FILLER_0_18_245
*746 FILLER_0_18_251
*747 FILLER_0_18_253
*748 FILLER_0_18_265
*749 FILLER_0_18_27
*750 FILLER_0_18_277
*751 FILLER_0_18_289
*752 FILLER_0_18_29
*753 FILLER_0_18_3
*754 FILLER_0_18_301
*755 FILLER_0_18_307
*756 FILLER_0_18_309
*757 FILLER_0_18_321
*758 FILLER_0_18_333
*759 FILLER_0_18_41
*760 FILLER_0_18_53
*761 FILLER_0_18_65
*762 FILLER_0_18_77
*763 FILLER_0_18_83
*764 FILLER_0_18_85
*765 FILLER_0_18_97
*766 FILLER_0_19_105
*767 FILLER_0_19_111
*768 FILLER_0_19_113
*769 FILLER_0_19_125
*770 FILLER_0_19_137
*771 FILLER_0_19_149
*772 FILLER_0_19_15
*773 FILLER_0_19_161
*774 FILLER_0_19_167
*775 FILLER_0_19_169
*776 FILLER_0_19_181
*777 FILLER_0_19_193
*778 FILLER_0_19_205
*779 FILLER_0_19_217
*780 FILLER_0_19_223
*781 FILLER_0_19_225
*782 FILLER_0_19_237
*783 FILLER_0_19_249
*784 FILLER_0_19_261
*785 FILLER_0_19_27
*786 FILLER_0_19_273
*787 FILLER_0_19_279
*788 FILLER_0_19_281
*789 FILLER_0_19_293
*790 FILLER_0_19_3
*791 FILLER_0_19_305
*792 FILLER_0_19_317
*793 FILLER_0_19_329
*794 FILLER_0_19_39
*795 FILLER_0_19_51
*796 FILLER_0_19_55
*797 FILLER_0_19_57
*798 FILLER_0_19_69
*799 FILLER_0_19_81
*800 FILLER_0_19_93
*801 FILLER_0_1_105
*802 FILLER_0_1_111
*803 FILLER_0_1_113
*804 FILLER_0_1_125
*805 FILLER_0_1_137
*806 FILLER_0_1_149
*807 FILLER_0_1_15
*808 FILLER_0_1_161
*809 FILLER_0_1_167
*810 FILLER_0_1_169
*811 FILLER_0_1_181
*812 FILLER_0_1_193
*813 FILLER_0_1_205
*814 FILLER_0_1_217
*815 FILLER_0_1_223
*816 FILLER_0_1_225
*817 FILLER_0_1_237
*818 FILLER_0_1_249
*819 FILLER_0_1_261
*820 FILLER_0_1_27
*821 FILLER_0_1_273
*822 FILLER_0_1_279
*823 FILLER_0_1_281
*824 FILLER_0_1_293
*825 FILLER_0_1_3
*826 FILLER_0_1_305
*827 FILLER_0_1_317
*828 FILLER_0_1_329
*829 FILLER_0_1_39
*830 FILLER_0_1_51
*831 FILLER_0_1_55
*832 FILLER_0_1_57
*833 FILLER_0_1_69
*834 FILLER_0_1_81
*835 FILLER_0_1_93
*836 FILLER_0_20_109
*837 FILLER_0_20_121
*838 FILLER_0_20_133
*839 FILLER_0_20_139
*840 FILLER_0_20_141
*841 FILLER_0_20_15
*842 FILLER_0_20_153
*843 FILLER_0_20_165
*844 FILLER_0_20_177
*845 FILLER_0_20_189
*846 FILLER_0_20_195
*847 FILLER_0_20_197
*848 FILLER_0_20_209
*849 FILLER_0_20_221
*850 FILLER_0_20_233
*851 FILLER_0_20_245
*852 FILLER_0_20_251
*853 FILLER_0_20_253
*854 FILLER_0_20_265
*855 FILLER_0_20_27
*856 FILLER_0_20_277
*857 FILLER_0_20_289
*858 FILLER_0_20_29
*859 FILLER_0_20_3
*860 FILLER_0_20_301
*861 FILLER_0_20_307
*862 FILLER_0_20_309
*863 FILLER_0_20_321
*864 FILLER_0_20_333
*865 FILLER_0_20_41
*866 FILLER_0_20_53
*867 FILLER_0_20_65
*868 FILLER_0_20_77
*869 FILLER_0_20_83
*870 FILLER_0_20_85
*871 FILLER_0_20_97
*872 FILLER_0_21_105
*873 FILLER_0_21_111
*874 FILLER_0_21_113
*875 FILLER_0_21_125
*876 FILLER_0_21_137
*877 FILLER_0_21_149
*878 FILLER_0_21_15
*879 FILLER_0_21_161
*880 FILLER_0_21_167
*881 FILLER_0_21_169
*882 FILLER_0_21_181
*883 FILLER_0_21_193
*884 FILLER_0_21_205
*885 FILLER_0_21_217
*886 FILLER_0_21_223
*887 FILLER_0_21_225
*888 FILLER_0_21_237
*889 FILLER_0_21_249
*890 FILLER_0_21_261
*891 FILLER_0_21_27
*892 FILLER_0_21_273
*893 FILLER_0_21_279
*894 FILLER_0_21_281
*895 FILLER_0_21_293
*896 FILLER_0_21_3
*897 FILLER_0_21_305
*898 FILLER_0_21_317
*899 FILLER_0_21_329
*900 FILLER_0_21_39
*901 FILLER_0_21_51
*902 FILLER_0_21_55
*903 FILLER_0_21_57
*904 FILLER_0_21_69
*905 FILLER_0_21_81
*906 FILLER_0_21_93
*907 FILLER_0_22_109
*908 FILLER_0_22_121
*909 FILLER_0_22_133
*910 FILLER_0_22_139
*911 FILLER_0_22_141
*912 FILLER_0_22_15
*913 FILLER_0_22_153
*914 FILLER_0_22_165
*915 FILLER_0_22_181
*916 FILLER_0_22_193
*917 FILLER_0_22_197
*918 FILLER_0_22_202
*919 FILLER_0_22_221
*920 FILLER_0_22_233
*921 FILLER_0_22_245
*922 FILLER_0_22_251
*923 FILLER_0_22_253
*924 FILLER_0_22_265
*925 FILLER_0_22_27
*926 FILLER_0_22_277
*927 FILLER_0_22_289
*928 FILLER_0_22_29
*929 FILLER_0_22_3
*930 FILLER_0_22_301
*931 FILLER_0_22_307
*932 FILLER_0_22_309
*933 FILLER_0_22_321
*934 FILLER_0_22_333
*935 FILLER_0_22_41
*936 FILLER_0_22_53
*937 FILLER_0_22_65
*938 FILLER_0_22_77
*939 FILLER_0_22_83
*940 FILLER_0_22_85
*941 FILLER_0_22_97
*942 FILLER_0_23_105
*943 FILLER_0_23_111
*944 FILLER_0_23_113
*945 FILLER_0_23_125
*946 FILLER_0_23_137
*947 FILLER_0_23_149
*948 FILLER_0_23_15
*949 FILLER_0_23_157
*950 FILLER_0_23_182
*951 FILLER_0_23_192
*952 FILLER_0_23_223
*953 FILLER_0_23_225
*954 FILLER_0_23_237
*955 FILLER_0_23_266
*956 FILLER_0_23_27
*957 FILLER_0_23_278
*958 FILLER_0_23_281
*959 FILLER_0_23_293
*960 FILLER_0_23_3
*961 FILLER_0_23_305
*962 FILLER_0_23_317
*963 FILLER_0_23_329
*964 FILLER_0_23_39
*965 FILLER_0_23_51
*966 FILLER_0_23_55
*967 FILLER_0_23_57
*968 FILLER_0_23_69
*969 FILLER_0_23_81
*970 FILLER_0_23_93
*971 FILLER_0_24_109
*972 FILLER_0_24_121
*973 FILLER_0_24_133
*974 FILLER_0_24_139
*975 FILLER_0_24_141
*976 FILLER_0_24_149
*977 FILLER_0_24_15
*978 FILLER_0_24_182
*979 FILLER_0_24_194
*980 FILLER_0_24_197
*981 FILLER_0_24_201
*982 FILLER_0_24_228
*983 FILLER_0_24_240
*984 FILLER_0_24_253
*985 FILLER_0_24_27
*986 FILLER_0_24_272
*987 FILLER_0_24_284
*988 FILLER_0_24_29
*989 FILLER_0_24_3
*990 FILLER_0_24_303
*991 FILLER_0_24_307
*992 FILLER_0_24_309
*993 FILLER_0_24_321
*994 FILLER_0_24_333
*995 FILLER_0_24_41
*996 FILLER_0_24_53
*997 FILLER_0_24_65
*998 FILLER_0_24_77
*999 FILLER_0_24_83
*1000 FILLER_0_24_85
*1001 FILLER_0_24_97
*1002 FILLER_0_25_106
*1003 FILLER_0_25_113
*1004 FILLER_0_25_125
*1005 FILLER_0_25_137
*1006 FILLER_0_25_149
*1007 FILLER_0_25_15
*1008 FILLER_0_25_182
*1009 FILLER_0_25_194
*1010 FILLER_0_25_228
*1011 FILLER_0_25_247
*1012 FILLER_0_25_253
*1013 FILLER_0_25_27
*1014 FILLER_0_25_276
*1015 FILLER_0_25_3
*1016 FILLER_0_25_302
*1017 FILLER_0_25_312
*1018 FILLER_0_25_324
*1019 FILLER_0_25_332
*1020 FILLER_0_25_39
*1021 FILLER_0_25_51
*1022 FILLER_0_25_55
*1023 FILLER_0_25_57
*1024 FILLER_0_25_89
*1025 FILLER_0_26_111
*1026 FILLER_0_26_123
*1027 FILLER_0_26_135
*1028 FILLER_0_26_139
*1029 FILLER_0_26_148
*1030 FILLER_0_26_15
*1031 FILLER_0_26_158
*1032 FILLER_0_26_184
*1033 FILLER_0_26_197
*1034 FILLER_0_26_220
*1035 FILLER_0_26_237
*1036 FILLER_0_26_261
*1037 FILLER_0_26_27
*1038 FILLER_0_26_273
*1039 FILLER_0_26_281
*1040 FILLER_0_26_288
*1041 FILLER_0_26_29
*1042 FILLER_0_26_3
*1043 FILLER_0_26_300
*1044 FILLER_0_26_309
*1045 FILLER_0_26_329
*1046 FILLER_0_26_41
*1047 FILLER_0_26_53
*1048 FILLER_0_26_85
*1049 FILLER_0_27_121
*1050 FILLER_0_27_15
*1051 FILLER_0_27_161
*1052 FILLER_0_27_169
*1053 FILLER_0_27_187
*1054 FILLER_0_27_199
*1055 FILLER_0_27_213
*1056 FILLER_0_27_221
*1057 FILLER_0_27_225
*1058 FILLER_0_27_237
*1059 FILLER_0_27_259
*1060 FILLER_0_27_27
*1061 FILLER_0_27_271
*1062 FILLER_0_27_279
*1063 FILLER_0_27_281
*1064 FILLER_0_27_298
*1065 FILLER_0_27_3
*1066 FILLER_0_27_324
*1067 FILLER_0_27_332
*1068 FILLER_0_27_35
*1069 FILLER_0_27_47
*1070 FILLER_0_27_51
*1071 FILLER_0_27_55
*1072 FILLER_0_27_69
*1073 FILLER_0_27_83
*1074 FILLER_0_28_124
*1075 FILLER_0_28_132
*1076 FILLER_0_28_141
*1077 FILLER_0_28_15
*1078 FILLER_0_28_152
*1079 FILLER_0_28_183
*1080 FILLER_0_28_195
*1081 FILLER_0_28_197
*1082 FILLER_0_28_203
*1083 FILLER_0_28_227
*1084 FILLER_0_28_235
*1085 FILLER_0_28_262
*1086 FILLER_0_28_27
*1087 FILLER_0_28_274
*1088 FILLER_0_28_287
*1089 FILLER_0_28_29
*1090 FILLER_0_28_299
*1091 FILLER_0_28_3
*1092 FILLER_0_28_331
*1093 FILLER_0_28_37
*1094 FILLER_0_28_47
*1095 FILLER_0_28_53
*1096 FILLER_0_28_69
*1097 FILLER_0_28_83
*1098 FILLER_0_28_90
*1099 FILLER_0_29_103
*1100 FILLER_0_29_111
*1101 FILLER_0_29_15
*1102 FILLER_0_29_150
*1103 FILLER_0_29_158
*1104 FILLER_0_29_166
*1105 FILLER_0_29_196
*1106 FILLER_0_29_223
*1107 FILLER_0_29_236
*1108 FILLER_0_29_242
*1109 FILLER_0_29_249
*1110 FILLER_0_29_272
*1111 FILLER_0_29_281
*1112 FILLER_0_29_292
*1113 FILLER_0_29_3
*1114 FILLER_0_29_300
*1115 FILLER_0_29_325
*1116 FILLER_0_29_333
*1117 FILLER_0_29_39
*1118 FILLER_0_29_51
*1119 FILLER_0_29_55
*1120 FILLER_0_29_57
*1121 FILLER_0_29_91
*1122 FILLER_0_2_109
*1123 FILLER_0_2_121
*1124 FILLER_0_2_133
*1125 FILLER_0_2_139
*1126 FILLER_0_2_141
*1127 FILLER_0_2_15
*1128 FILLER_0_2_153
*1129 FILLER_0_2_165
*1130 FILLER_0_2_177
*1131 FILLER_0_2_189
*1132 FILLER_0_2_195
*1133 FILLER_0_2_197
*1134 FILLER_0_2_209
*1135 FILLER_0_2_221
*1136 FILLER_0_2_233
*1137 FILLER_0_2_245
*1138 FILLER_0_2_251
*1139 FILLER_0_2_253
*1140 FILLER_0_2_265
*1141 FILLER_0_2_27
*1142 FILLER_0_2_277
*1143 FILLER_0_2_289
*1144 FILLER_0_2_29
*1145 FILLER_0_2_3
*1146 FILLER_0_2_301
*1147 FILLER_0_2_307
*1148 FILLER_0_2_309
*1149 FILLER_0_2_321
*1150 FILLER_0_2_333
*1151 FILLER_0_2_41
*1152 FILLER_0_2_53
*1153 FILLER_0_2_65
*1154 FILLER_0_2_77
*1155 FILLER_0_2_83
*1156 FILLER_0_2_85
*1157 FILLER_0_2_97
*1158 FILLER_0_30_127
*1159 FILLER_0_30_139
*1160 FILLER_0_30_141
*1161 FILLER_0_30_15
*1162 FILLER_0_30_153
*1163 FILLER_0_30_194
*1164 FILLER_0_30_197
*1165 FILLER_0_30_230
*1166 FILLER_0_30_239
*1167 FILLER_0_30_250
*1168 FILLER_0_30_253
*1169 FILLER_0_30_267
*1170 FILLER_0_30_27
*1171 FILLER_0_30_279
*1172 FILLER_0_30_29
*1173 FILLER_0_30_3
*1174 FILLER_0_30_306
*1175 FILLER_0_30_309
*1176 FILLER_0_30_313
*1177 FILLER_0_30_330
*1178 FILLER_0_30_334
*1179 FILLER_0_30_37
*1180 FILLER_0_30_42
*1181 FILLER_0_30_54
*1182 FILLER_0_30_62
*1183 FILLER_0_30_72
*1184 FILLER_0_30_82
*1185 FILLER_0_30_85
*1186 FILLER_0_30_93
*1187 FILLER_0_31_101
*1188 FILLER_0_31_111
*1189 FILLER_0_31_113
*1190 FILLER_0_31_118
*1191 FILLER_0_31_137
*1192 FILLER_0_31_147
*1193 FILLER_0_31_15
*1194 FILLER_0_31_155
*1195 FILLER_0_31_164
*1196 FILLER_0_31_169
*1197 FILLER_0_31_173
*1198 FILLER_0_31_21
*1199 FILLER_0_31_210
*1200 FILLER_0_31_222
*1201 FILLER_0_31_225
*1202 FILLER_0_31_229
*1203 FILLER_0_31_249
*1204 FILLER_0_31_259
*1205 FILLER_0_31_269
*1206 FILLER_0_31_279
*1207 FILLER_0_31_281
*1208 FILLER_0_31_292
*1209 FILLER_0_31_3
*1210 FILLER_0_31_300
*1211 FILLER_0_31_308
*1212 FILLER_0_31_328
*1213 FILLER_0_31_334
*1214 FILLER_0_31_38
*1215 FILLER_0_31_52
*1216 FILLER_0_31_57
*1217 FILLER_0_31_68
*1218 FILLER_0_31_95
*1219 FILLER_0_32_100
*1220 FILLER_0_32_129
*1221 FILLER_0_32_138
*1222 FILLER_0_32_15
*1223 FILLER_0_32_166
*1224 FILLER_0_32_188
*1225 FILLER_0_32_19
*1226 FILLER_0_32_200
*1227 FILLER_0_32_212
*1228 FILLER_0_32_224
*1229 FILLER_0_32_232
*1230 FILLER_0_32_249
*1231 FILLER_0_32_263
*1232 FILLER_0_32_267
*1233 FILLER_0_32_287
*1234 FILLER_0_32_29
*1235 FILLER_0_32_3
*1236 FILLER_0_32_301
*1237 FILLER_0_32_317
*1238 FILLER_0_32_321
*1239 FILLER_0_32_331
*1240 FILLER_0_32_59
*1241 FILLER_0_32_77
*1242 FILLER_0_32_96
*1243 FILLER_0_33_100
*1244 FILLER_0_33_113
*1245 FILLER_0_33_123
*1246 FILLER_0_33_135
*1247 FILLER_0_33_157
*1248 FILLER_0_33_165
*1249 FILLER_0_33_169
*1250 FILLER_0_33_181
*1251 FILLER_0_33_189
*1252 FILLER_0_33_207
*1253 FILLER_0_33_219
*1254 FILLER_0_33_223
*1255 FILLER_0_33_233
*1256 FILLER_0_33_237
*1257 FILLER_0_33_242
*1258 FILLER_0_33_248
*1259 FILLER_0_33_269
*1260 FILLER_0_33_281
*1261 FILLER_0_33_285
*1262 FILLER_0_33_3
*1263 FILLER_0_33_311
*1264 FILLER_0_33_323
*1265 FILLER_0_33_42
*1266 FILLER_0_33_57
*1267 FILLER_0_33_70
*1268 FILLER_0_33_88
*1269 FILLER_0_33_9
*1270 FILLER_0_34_136
*1271 FILLER_0_34_148
*1272 FILLER_0_34_15
*1273 FILLER_0_34_160
*1274 FILLER_0_34_164
*1275 FILLER_0_34_170
*1276 FILLER_0_34_182
*1277 FILLER_0_34_194
*1278 FILLER_0_34_197
*1279 FILLER_0_34_207
*1280 FILLER_0_34_250
*1281 FILLER_0_34_261
*1282 FILLER_0_34_285
*1283 FILLER_0_34_297
*1284 FILLER_0_34_3
*1285 FILLER_0_34_305
*1286 FILLER_0_34_309
*1287 FILLER_0_34_331
*1288 FILLER_0_34_68
*1289 FILLER_0_34_89
*1290 FILLER_0_34_97
*1291 FILLER_0_35_107
*1292 FILLER_0_35_116
*1293 FILLER_0_35_128
*1294 FILLER_0_35_132
*1295 FILLER_0_35_15
*1296 FILLER_0_35_151
*1297 FILLER_0_35_159
*1298 FILLER_0_35_221
*1299 FILLER_0_35_23
*1300 FILLER_0_35_241
*1301 FILLER_0_35_253
*1302 FILLER_0_35_260
*1303 FILLER_0_35_264
*1304 FILLER_0_35_270
*1305 FILLER_0_35_276
*1306 FILLER_0_35_281
*1307 FILLER_0_35_287
*1308 FILLER_0_35_292
*1309 FILLER_0_35_3
*1310 FILLER_0_35_302
*1311 FILLER_0_35_318
*1312 FILLER_0_35_330
*1313 FILLER_0_35_334
*1314 FILLER_0_35_53
*1315 FILLER_0_35_57
*1316 FILLER_0_35_95
*1317 FILLER_0_36_104
*1318 FILLER_0_36_125
*1319 FILLER_0_36_15
*1320 FILLER_0_36_157
*1321 FILLER_0_36_193
*1322 FILLER_0_36_222
*1323 FILLER_0_36_234
*1324 FILLER_0_36_241
*1325 FILLER_0_36_269
*1326 FILLER_0_36_27
*1327 FILLER_0_36_277
*1328 FILLER_0_36_29
*1329 FILLER_0_36_3
*1330 FILLER_0_36_309
*1331 FILLER_0_36_330
*1332 FILLER_0_36_334
*1333 FILLER_0_36_35
*1334 FILLER_0_36_61
*1335 FILLER_0_36_65
*1336 FILLER_0_36_83
*1337 FILLER_0_37_119
*1338 FILLER_0_37_131
*1339 FILLER_0_37_147
*1340 FILLER_0_37_15
*1341 FILLER_0_37_158
*1342 FILLER_0_37_169
*1343 FILLER_0_37_173
*1344 FILLER_0_37_195
*1345 FILLER_0_37_203
*1346 FILLER_0_37_223
*1347 FILLER_0_37_225
*1348 FILLER_0_37_268
*1349 FILLER_0_37_27
*1350 FILLER_0_37_3
*1351 FILLER_0_37_306
*1352 FILLER_0_37_314
*1353 FILLER_0_37_331
*1354 FILLER_0_37_39
*1355 FILLER_0_37_51
*1356 FILLER_0_37_55
*1357 FILLER_0_37_89
*1358 FILLER_0_38_10
*1359 FILLER_0_38_109
*1360 FILLER_0_38_113
*1361 FILLER_0_38_118
*1362 FILLER_0_38_122
*1363 FILLER_0_38_126
*1364 FILLER_0_38_130
*1365 FILLER_0_38_134
*1366 FILLER_0_38_14
*1367 FILLER_0_38_141
*1368 FILLER_0_38_153
*1369 FILLER_0_38_165
*1370 FILLER_0_38_169
*1371 FILLER_0_38_18
*1372 FILLER_0_38_181
*1373 FILLER_0_38_189
*1374 FILLER_0_38_195
*1375 FILLER_0_38_197
*1376 FILLER_0_38_209
*1377 FILLER_0_38_22
*1378 FILLER_0_38_221
*1379 FILLER_0_38_225
*1380 FILLER_0_38_233
*1381 FILLER_0_38_244
*1382 FILLER_0_38_261
*1383 FILLER_0_38_273
*1384 FILLER_0_38_278
*1385 FILLER_0_38_281
*1386 FILLER_0_38_305
*1387 FILLER_0_38_312
*1388 FILLER_0_38_32
*1389 FILLER_0_38_321
*1390 FILLER_0_38_327
*1391 FILLER_0_38_38
*1392 FILLER_0_38_42
*1393 FILLER_0_38_46
*1394 FILLER_0_38_50
*1395 FILLER_0_38_54
*1396 FILLER_0_38_57
*1397 FILLER_0_38_6
*1398 FILLER_0_38_62
*1399 FILLER_0_38_66
*1400 FILLER_0_38_73
*1401 FILLER_0_38_81
*1402 FILLER_0_38_85
*1403 FILLER_0_38_97
*1404 FILLER_0_3_105
*1405 FILLER_0_3_111
*1406 FILLER_0_3_113
*1407 FILLER_0_3_125
*1408 FILLER_0_3_137
*1409 FILLER_0_3_149
*1410 FILLER_0_3_15
*1411 FILLER_0_3_161
*1412 FILLER_0_3_167
*1413 FILLER_0_3_169
*1414 FILLER_0_3_181
*1415 FILLER_0_3_193
*1416 FILLER_0_3_205
*1417 FILLER_0_3_217
*1418 FILLER_0_3_223
*1419 FILLER_0_3_225
*1420 FILLER_0_3_237
*1421 FILLER_0_3_249
*1422 FILLER_0_3_261
*1423 FILLER_0_3_27
*1424 FILLER_0_3_273
*1425 FILLER_0_3_279
*1426 FILLER_0_3_281
*1427 FILLER_0_3_293
*1428 FILLER_0_3_3
*1429 FILLER_0_3_305
*1430 FILLER_0_3_317
*1431 FILLER_0_3_329
*1432 FILLER_0_3_39
*1433 FILLER_0_3_51
*1434 FILLER_0_3_55
*1435 FILLER_0_3_57
*1436 FILLER_0_3_69
*1437 FILLER_0_3_81
*1438 FILLER_0_3_93
*1439 FILLER_0_4_109
*1440 FILLER_0_4_121
*1441 FILLER_0_4_133
*1442 FILLER_0_4_139
*1443 FILLER_0_4_141
*1444 FILLER_0_4_15
*1445 FILLER_0_4_153
*1446 FILLER_0_4_165
*1447 FILLER_0_4_177
*1448 FILLER_0_4_189
*1449 FILLER_0_4_195
*1450 FILLER_0_4_197
*1451 FILLER_0_4_209
*1452 FILLER_0_4_221
*1453 FILLER_0_4_233
*1454 FILLER_0_4_245
*1455 FILLER_0_4_251
*1456 FILLER_0_4_253
*1457 FILLER_0_4_265
*1458 FILLER_0_4_27
*1459 FILLER_0_4_277
*1460 FILLER_0_4_289
*1461 FILLER_0_4_29
*1462 FILLER_0_4_3
*1463 FILLER_0_4_301
*1464 FILLER_0_4_307
*1465 FILLER_0_4_309
*1466 FILLER_0_4_321
*1467 FILLER_0_4_333
*1468 FILLER_0_4_41
*1469 FILLER_0_4_53
*1470 FILLER_0_4_65
*1471 FILLER_0_4_77
*1472 FILLER_0_4_83
*1473 FILLER_0_4_85
*1474 FILLER_0_4_97
*1475 FILLER_0_5_105
*1476 FILLER_0_5_111
*1477 FILLER_0_5_113
*1478 FILLER_0_5_125
*1479 FILLER_0_5_137
*1480 FILLER_0_5_149
*1481 FILLER_0_5_15
*1482 FILLER_0_5_161
*1483 FILLER_0_5_167
*1484 FILLER_0_5_169
*1485 FILLER_0_5_181
*1486 FILLER_0_5_193
*1487 FILLER_0_5_205
*1488 FILLER_0_5_217
*1489 FILLER_0_5_223
*1490 FILLER_0_5_225
*1491 FILLER_0_5_237
*1492 FILLER_0_5_249
*1493 FILLER_0_5_261
*1494 FILLER_0_5_27
*1495 FILLER_0_5_273
*1496 FILLER_0_5_279
*1497 FILLER_0_5_281
*1498 FILLER_0_5_293
*1499 FILLER_0_5_3
*1500 FILLER_0_5_305
*1501 FILLER_0_5_317
*1502 FILLER_0_5_329
*1503 FILLER_0_5_39
*1504 FILLER_0_5_51
*1505 FILLER_0_5_55
*1506 FILLER_0_5_57
*1507 FILLER_0_5_69
*1508 FILLER_0_5_81
*1509 FILLER_0_5_93
*1510 FILLER_0_6_109
*1511 FILLER_0_6_121
*1512 FILLER_0_6_133
*1513 FILLER_0_6_139
*1514 FILLER_0_6_141
*1515 FILLER_0_6_15
*1516 FILLER_0_6_153
*1517 FILLER_0_6_165
*1518 FILLER_0_6_177
*1519 FILLER_0_6_189
*1520 FILLER_0_6_195
*1521 FILLER_0_6_197
*1522 FILLER_0_6_209
*1523 FILLER_0_6_221
*1524 FILLER_0_6_233
*1525 FILLER_0_6_245
*1526 FILLER_0_6_251
*1527 FILLER_0_6_253
*1528 FILLER_0_6_265
*1529 FILLER_0_6_27
*1530 FILLER_0_6_277
*1531 FILLER_0_6_289
*1532 FILLER_0_6_29
*1533 FILLER_0_6_3
*1534 FILLER_0_6_301
*1535 FILLER_0_6_307
*1536 FILLER_0_6_309
*1537 FILLER_0_6_321
*1538 FILLER_0_6_333
*1539 FILLER_0_6_41
*1540 FILLER_0_6_53
*1541 FILLER_0_6_65
*1542 FILLER_0_6_77
*1543 FILLER_0_6_83
*1544 FILLER_0_6_85
*1545 FILLER_0_6_97
*1546 FILLER_0_7_105
*1547 FILLER_0_7_111
*1548 FILLER_0_7_113
*1549 FILLER_0_7_125
*1550 FILLER_0_7_137
*1551 FILLER_0_7_149
*1552 FILLER_0_7_15
*1553 FILLER_0_7_161
*1554 FILLER_0_7_167
*1555 FILLER_0_7_169
*1556 FILLER_0_7_181
*1557 FILLER_0_7_193