*SPEF "ieee 1481-1999"
*DESIGN "tt_um_CKPope_top"
*DATE "15:46:54 Monday April 15, 2024"
*VENDOR "The OpenROAD Project"
*PROGRAM "OpenROAD"
*VERSION "0889970d1790a2617e69f253221b8bd7626e51dc"
*DESIGN_FLOW "NAME_SCOPE LOCAL" "PIN_CAP NONE"
*DIVIDER /
*DELIMITER :
*BUS_DELIMITER []
*T_UNIT 1 NS
*C_UNIT 1 PF
*R_UNIT 1 OHM
*L_UNIT 1 HENRY

*NAME_MAP
*3 clk
*4 ena
*5 rst_n
*6 ui_in[0]
*7 ui_in[1]
*8 ui_in[2]
*9 ui_in[3]
*10 ui_in[4]
*11 ui_in[5]
*12 ui_in[6]
*13 ui_in[7]
*14 uio_in[0]
*15 uio_in[1]
*16 uio_in[2]
*17 uio_in[3]
*18 uio_in[4]
*19 uio_in[5]
*20 uio_in[6]
*21 uio_in[7]
*22 net11
*23 net12
*24 net13
*25 net14
*26 net15
*27 net16
*28 net17
*29 net18
*30 net19
*31 net20
*32 net21
*33 net22
*34 net23
*35 net24
*36 net25
*37 net26
*38 uo_out[0]
*39 uo_out[1]
*40 uo_out[2]
*41 uo_out[3]
*42 uo_out[4]
*43 uo_out[5]
*44 uo_out[6]
*45 uo_out[7]
*46 _000_
*47 _001_
*48 _002_
*49 _003_
*50 _004_
*51 _005_
*52 _006_
*53 _007_
*54 _008_
*55 _009_
*56 _010_
*57 _011_
*58 _012_
*59 _013_
*60 _014_
*61 _015_
*62 _016_
*63 _017_
*64 _018_
*65 _019_
*66 _020_
*67 _021_
*68 _022_
*69 _023_
*70 _024_
*71 _025_
*72 _026_
*73 _027_
*74 _028_
*75 _029_
*76 _030_
*77 _031_
*78 _032_
*79 _033_
*80 _034_
*81 _035_
*82 _036_
*83 _037_
*84 _038_
*85 _039_
*86 _040_
*87 _041_
*88 _042_
*89 _043_
*90 _044_
*91 _045_
*92 _046_
*93 _047_
*94 _048_
*95 _049_
*96 _050_
*97 _051_
*98 _052_
*99 _053_
*100 _054_
*101 _055_
*102 _056_
*103 _057_
*104 _058_
*105 _059_
*106 _060_
*107 _061_
*108 _062_
*109 _063_
*110 _064_
*111 _065_
*112 _066_
*113 _067_
*114 _068_
*115 _069_
*116 _070_
*117 _071_
*118 _072_
*119 _073_
*120 _074_
*121 _075_
*122 _076_
*123 _077_
*124 _078_
*125 _079_
*126 _080_
*127 _081_
*128 _082_
*129 _083_
*130 _084_
*131 _085_
*132 _086_
*133 _087_
*134 _088_
*135 _089_
*136 _090_
*137 _091_
*138 _092_
*139 _093_
*140 _094_
*141 buttons\.chain0\[0\]
*142 buttons\.chain0\[1\]
*143 buttons\.chain1\[0\]
*144 buttons\.chain1\[1\]
*145 buttons\.reset
*146 clknet_0_clk
*147 clknet_1_0__leaf_clk
*148 clknet_1_1__leaf_clk
*149 net1
*150 net10
*151 net2
*152 net27
*153 net28
*154 net29
*155 net3
*156 net30
*157 net31
*158 net32
*159 net33
*160 net34
*161 net35
*162 net36
*163 net37
*164 net38
*165 net39
*166 net4
*167 net40
*168 net41
*169 net42
*170 net43
*171 net44
*172 net45
*173 net46
*174 net47
*175 net5
*176 net6
*177 net7
*178 net8
*179 net9
*180 x_comp\.Bit0_COMP\.a
*181 x_comp\.Bit0_COMP\.b
*182 x_comp\.Bit1_COMP\.a
*183 x_comp\.Bit1_COMP\.b
*184 x_comp\.Bit2_COMP\.a
*185 x_comp\.Bit2_COMP\.b
*186 x_comp\.Bit3_COMP\.a
*187 x_comp\.Bit3_COMP\.b
*188 xycontroller\.current_state\[0\]
*189 xycontroller\.current_state\[1\]
*190 xycontroller\.current_state\[2\]
*191 xycontroller\.next_state\[0\]
*192 xycontroller\.next_state\[1\]
*193 xycontroller\.next_state\[2\]
*194 y_comp\.Bit0_COMP\.a
*195 y_comp\.Bit0_COMP\.b
*196 y_comp\.Bit1_COMP\.a
*197 y_comp\.Bit1_COMP\.b
*198 y_comp\.Bit2_COMP\.a
*199 y_comp\.Bit2_COMP\.b
*200 y_comp\.Bit3_COMP\.a
*201 y_comp\.Bit3_COMP\.b
*202 FILLER_0_0_109
*203 FILLER_0_0_113
*204 FILLER_0_0_125
*205 FILLER_0_0_137
*206 FILLER_0_0_141
*207 FILLER_0_0_15
*208 FILLER_0_0_153
*209 FILLER_0_0_165
*210 FILLER_0_0_169
*211 FILLER_0_0_181
*212 FILLER_0_0_193
*213 FILLER_0_0_197
*214 FILLER_0_0_209
*215 FILLER_0_0_221
*216 FILLER_0_0_225
*217 FILLER_0_0_237
*218 FILLER_0_0_249
*219 FILLER_0_0_253
*220 FILLER_0_0_265
*221 FILLER_0_0_27
*222 FILLER_0_0_277
*223 FILLER_0_0_281
*224 FILLER_0_0_29
*225 FILLER_0_0_293
*226 FILLER_0_0_3
*227 FILLER_0_0_305
*228 FILLER_0_0_309
*229 FILLER_0_0_321
*230 FILLER_0_0_333
*231 FILLER_0_0_41
*232 FILLER_0_0_53
*233 FILLER_0_0_57
*234 FILLER_0_0_69
*235 FILLER_0_0_81
*236 FILLER_0_0_85
*237 FILLER_0_0_97
*238 FILLER_0_10_109
*239 FILLER_0_10_121
*240 FILLER_0_10_133
*241 FILLER_0_10_139
*242 FILLER_0_10_141
*243 FILLER_0_10_15
*244 FILLER_0_10_153
*245 FILLER_0_10_165
*246 FILLER_0_10_177
*247 FILLER_0_10_189
*248 FILLER_0_10_195
*249 FILLER_0_10_197
*250 FILLER_0_10_209
*251 FILLER_0_10_221
*252 FILLER_0_10_233
*253 FILLER_0_10_245
*254 FILLER_0_10_251
*255 FILLER_0_10_253
*256 FILLER_0_10_265
*257 FILLER_0_10_27
*258 FILLER_0_10_277
*259 FILLER_0_10_289
*260 FILLER_0_10_29
*261 FILLER_0_10_3
*262 FILLER_0_10_301
*263 FILLER_0_10_307
*264 FILLER_0_10_309
*265 FILLER_0_10_321
*266 FILLER_0_10_333
*267 FILLER_0_10_41
*268 FILLER_0_10_53
*269 FILLER_0_10_65
*270 FILLER_0_10_77
*271 FILLER_0_10_83
*272 FILLER_0_10_85
*273 FILLER_0_10_97
*274 FILLER_0_11_105
*275 FILLER_0_11_111
*276 FILLER_0_11_113
*277 FILLER_0_11_125
*278 FILLER_0_11_137
*279 FILLER_0_11_149
*280 FILLER_0_11_15
*281 FILLER_0_11_161
*282 FILLER_0_11_167
*283 FILLER_0_11_169
*284 FILLER_0_11_181
*285 FILLER_0_11_193
*286 FILLER_0_11_205
*287 FILLER_0_11_217
*288 FILLER_0_11_223
*289 FILLER_0_11_225
*290 FILLER_0_11_237
*291 FILLER_0_11_249
*292 FILLER_0_11_261
*293 FILLER_0_11_27
*294 FILLER_0_11_273
*295 FILLER_0_11_279
*296 FILLER_0_11_281
*297 FILLER_0_11_293
*298 FILLER_0_11_3
*299 FILLER_0_11_305
*300 FILLER_0_11_317
*301 FILLER_0_11_329
*302 FILLER_0_11_39
*303 FILLER_0_11_51
*304 FILLER_0_11_55
*305 FILLER_0_11_57
*306 FILLER_0_11_69
*307 FILLER_0_11_81
*308 FILLER_0_11_93
*309 FILLER_0_12_109
*310 FILLER_0_12_121
*311 FILLER_0_12_133
*312 FILLER_0_12_139
*313 FILLER_0_12_141
*314 FILLER_0_12_15
*315 FILLER_0_12_153
*316 FILLER_0_12_165
*317 FILLER_0_12_177
*318 FILLER_0_12_189
*319 FILLER_0_12_195
*320 FILLER_0_12_197
*321 FILLER_0_12_209
*322 FILLER_0_12_221
*323 FILLER_0_12_233
*324 FILLER_0_12_245
*325 FILLER_0_12_251
*326 FILLER_0_12_253
*327 FILLER_0_12_265
*328 FILLER_0_12_27
*329 FILLER_0_12_277
*330 FILLER_0_12_289
*331 FILLER_0_12_29
*332 FILLER_0_12_3
*333 FILLER_0_12_301
*334 FILLER_0_12_307
*335 FILLER_0_12_309
*336 FILLER_0_12_321
*337 FILLER_0_12_333
*338 FILLER_0_12_41
*339 FILLER_0_12_53
*340 FILLER_0_12_65
*341 FILLER_0_12_77
*342 FILLER_0_12_83
*343 FILLER_0_12_85
*344 FILLER_0_12_97
*345 FILLER_0_13_105
*346 FILLER_0_13_111
*347 FILLER_0_13_113
*348 FILLER_0_13_125
*349 FILLER_0_13_137
*350 FILLER_0_13_149
*351 FILLER_0_13_15
*352 FILLER_0_13_161
*353 FILLER_0_13_167
*354 FILLER_0_13_169
*355 FILLER_0_13_181
*356 FILLER_0_13_193
*357 FILLER_0_13_205
*358 FILLER_0_13_217
*359 FILLER_0_13_223
*360 FILLER_0_13_225
*361 FILLER_0_13_237
*362 FILLER_0_13_249
*363 FILLER_0_13_261
*364 FILLER_0_13_27
*365 FILLER_0_13_273
*366 FILLER_0_13_279
*367 FILLER_0_13_281
*368 FILLER_0_13_293
*369 FILLER_0_13_3
*370 FILLER_0_13_305
*371 FILLER_0_13_317
*372 FILLER_0_13_329
*373 FILLER_0_13_39
*374 FILLER_0_13_51
*375 FILLER_0_13_55
*376 FILLER_0_13_57
*377 FILLER_0_13_69
*378 FILLER_0_13_81
*379 FILLER_0_13_93
*380 FILLER_0_14_109
*381 FILLER_0_14_121
*382 FILLER_0_14_133
*383 FILLER_0_14_139
*384 FILLER_0_14_141
*385 FILLER_0_14_15
*386 FILLER_0_14_153
*387 FILLER_0_14_165
*388 FILLER_0_14_177
*389 FILLER_0_14_189
*390 FILLER_0_14_195
*391 FILLER_0_14_197
*392 FILLER_0_14_209
*393 FILLER_0_14_221
*394 FILLER_0_14_233
*395 FILLER_0_14_245
*396 FILLER_0_14_251
*397 FILLER_0_14_253
*398 FILLER_0_14_265
*399 FILLER_0_14_27
*400 FILLER_0_14_277
*401 FILLER_0_14_289
*402 FILLER_0_14_29
*403 FILLER_0_14_3
*404 FILLER_0_14_301
*405 FILLER_0_14_307
*406 FILLER_0_14_309
*407 FILLER_0_14_321
*408 FILLER_0_14_333
*409 FILLER_0_14_41
*410 FILLER_0_14_53
*411 FILLER_0_14_65
*412 FILLER_0_14_77
*413 FILLER_0_14_83
*414 FILLER_0_14_85
*415 FILLER_0_14_97
*416 FILLER_0_15_105
*417 FILLER_0_15_111
*418 FILLER_0_15_113
*419 FILLER_0_15_125
*420 FILLER_0_15_137
*421 FILLER_0_15_149
*422 FILLER_0_15_15
*423 FILLER_0_15_161
*424 FILLER_0_15_167
*425 FILLER_0_15_169
*426 FILLER_0_15_181
*427 FILLER_0_15_193
*428 FILLER_0_15_205
*429 FILLER_0_15_217
*430 FILLER_0_15_223
*431 FILLER_0_15_225
*432 FILLER_0_15_237
*433 FILLER_0_15_249
*434 FILLER_0_15_261
*435 FILLER_0_15_27
*436 FILLER_0_15_273
*437 FILLER_0_15_279
*438 FILLER_0_15_281
*439 FILLER_0_15_293
*440 FILLER_0_15_3
*441 FILLER_0_15_305
*442 FILLER_0_15_317
*443 FILLER_0_15_329
*444 FILLER_0_15_39
*445 FILLER_0_15_51
*446 FILLER_0_15_55
*447 FILLER_0_15_57
*448 FILLER_0_15_69
*449 FILLER_0_15_81
*450 FILLER_0_15_93
*451 FILLER_0_16_109
*452 FILLER_0_16_121
*453 FILLER_0_16_133
*454 FILLER_0_16_139
*455 FILLER_0_16_141
*456 FILLER_0_16_15
*457 FILLER_0_16_153
*458 FILLER_0_16_165
*459 FILLER_0_16_177
*460 FILLER_0_16_189
*461 FILLER_0_16_195
*462 FILLER_0_16_197
*463 FILLER_0_16_209
*464 FILLER_0_16_221
*465 FILLER_0_16_233
*466 FILLER_0_16_245
*467 FILLER_0_16_251
*468 FILLER_0_16_253
*469 FILLER_0_16_265
*470 FILLER_0_16_27
*471 FILLER_0_16_277
*472 FILLER_0_16_289
*473 FILLER_0_16_29
*474 FILLER_0_16_3
*475 FILLER_0_16_301
*476 FILLER_0_16_307
*477 FILLER_0_16_309
*478 FILLER_0_16_321
*479 FILLER_0_16_333
*480 FILLER_0_16_41
*481 FILLER_0_16_53
*482 FILLER_0_16_65
*483 FILLER_0_16_77
*484 FILLER_0_16_83
*485 FILLER_0_16_85
*486 FILLER_0_16_97
*487 FILLER_0_17_105
*488 FILLER_0_17_111
*489 FILLER_0_17_113
*490 FILLER_0_17_125
*491 FILLER_0_17_137
*492 FILLER_0_17_149
*493 FILLER_0_17_15
*494 FILLER_0_17_161
*495 FILLER_0_17_167
*496 FILLER_0_17_169
*497 FILLER_0_17_181
*498 FILLER_0_17_193
*499 FILLER_0_17_205
*500 FILLER_0_17_217
*501 FILLER_0_17_223
*502 FILLER_0_17_225
*503 FILLER_0_17_237
*504 FILLER_0_17_249
*505 FILLER_0_17_261
*506 FILLER_0_17_27
*507 FILLER_0_17_273
*508 FILLER_0_17_279
*509 FILLER_0_17_281
*510 FILLER_0_17_293
*511 FILLER_0_17_3
*512 FILLER_0_17_305
*513 FILLER_0_17_317
*514 FILLER_0_17_329
*515 FILLER_0_17_39
*516 FILLER_0_17_51
*517 FILLER_0_17_55
*518 FILLER_0_17_57
*519 FILLER_0_17_69
*520 FILLER_0_17_81
*521 FILLER_0_17_93
*522 FILLER_0_18_109
*523 FILLER_0_18_121
*524 FILLER_0_18_133
*525 FILLER_0_18_139
*526 FILLER_0_18_141
*527 FILLER_0_18_15
*528 FILLER_0_18_153
*529 FILLER_0_18_165
*530 FILLER_0_18_177
*531 FILLER_0_18_189
*532 FILLER_0_18_195
*533 FILLER_0_18_197
*534 FILLER_0_18_209
*535 FILLER_0_18_221
*536 FILLER_0_18_233
*537 FILLER_0_18_245
*538 FILLER_0_18_251
*539 FILLER_0_18_253
*540 FILLER_0_18_265
*541 FILLER_0_18_27
*542 FILLER_0_18_277
*543 FILLER_0_18_289
*544 FILLER_0_18_29
*545 FILLER_0_18_3
*546 FILLER_0_18_301
*547 FILLER_0_18_307
*548 FILLER_0_18_309
*549 FILLER_0_18_321
*550 FILLER_0_18_333
*551 FILLER_0_18_41
*552 FILLER_0_18_53
*553 FILLER_0_18_65
*554 FILLER_0_18_77
*555 FILLER_0_18_83
*556 FILLER_0_18_85
*557 FILLER_0_18_97
*558 FILLER_0_19_105
*559 FILLER_0_19_111
*560 FILLER_0_19_113
*561 FILLER_0_19_125
*562 FILLER_0_19_137
*563 FILLER_0_19_149
*564 FILLER_0_19_15
*565 FILLER_0_19_161
*566 FILLER_0_19_167
*567 FILLER_0_19_169
*568 FILLER_0_19_181
*569 FILLER_0_19_193
*570 FILLER_0_19_205
*571 FILLER_0_19_217
*572 FILLER_0_19_223
*573 FILLER_0_19_225
*574 FILLER_0_19_237
*575 FILLER_0_19_249
*576 FILLER_0_19_261
*577 FILLER_0_19_27
*578 FILLER_0_19_273
*579 FILLER_0_19_279
*580 FILLER_0_19_281
*581 FILLER_0_19_293
*582 FILLER_0_19_3
*583 FILLER_0_19_305
*584 FILLER_0_19_317
*585 FILLER_0_19_329
*586 FILLER_0_19_39
*587 FILLER_0_19_51
*588 FILLER_0_19_55
*589 FILLER_0_19_57
*590 FILLER_0_19_69
*591 FILLER_0_19_81
*592 FILLER_0_19_93
*593 FILLER_0_1_105
*594 FILLER_0_1_111
*595 FILLER_0_1_113
*596 FILLER_0_1_125
*597 FILLER_0_1_137
*598 FILLER_0_1_149
*599 FILLER_0_1_15
*600 FILLER_0_1_161
*601 FILLER_0_1_167
*602 FILLER_0_1_169
*603 FILLER_0_1_181
*604 FILLER_0_1_193
*605 FILLER_0_1_205
*606 FILLER_0_1_217
*607 FILLER_0_1_223
*608 FILLER_0_1_225
*609 FILLER_0_1_237
*610 FILLER_0_1_249
*611 FILLER_0_1_261
*612 FILLER_0_1_27
*613 FILLER_0_1_273
*614 FILLER_0_1_279
*615 FILLER_0_1_281
*616 FILLER_0_1_293
*617 FILLER_0_1_3
*618 FILLER_0_1_305
*619 FILLER_0_1_317
*620 FILLER_0_1_329
*621 FILLER_0_1_39
*622 FILLER_0_1_51
*623 FILLER_0_1_55
*624 FILLER_0_1_57
*625 FILLER_0_1_69
*626 FILLER_0_1_81
*627 FILLER_0_1_93
*628 FILLER_0_20_109
*629 FILLER_0_20_121
*630 FILLER_0_20_133
*631 FILLER_0_20_139
*632 FILLER_0_20_141
*633 FILLER_0_20_15
*634 FILLER_0_20_153
*635 FILLER_0_20_165
*636 FILLER_0_20_177
*637 FILLER_0_20_189
*638 FILLER_0_20_195
*639 FILLER_0_20_197
*640 FILLER_0_20_209
*641 FILLER_0_20_221
*642 FILLER_0_20_233
*643 FILLER_0_20_245
*644 FILLER_0_20_251
*645 FILLER_0_20_253
*646 FILLER_0_20_265
*647 FILLER_0_20_27
*648 FILLER_0_20_277
*649 FILLER_0_20_289
*650 FILLER_0_20_29
*651 FILLER_0_20_3
*652 FILLER_0_20_301
*653 FILLER_0_20_307
*654 FILLER_0_20_309
*655 FILLER_0_20_321
*656 FILLER_0_20_333
*657 FILLER_0_20_41
*658 FILLER_0_20_53
*659 FILLER_0_20_65
*660 FILLER_0_20_77
*661 FILLER_0_20_83
*662 FILLER_0_20_85
*663 FILLER_0_20_97
*664 FILLER_0_21_105
*665 FILLER_0_21_111
*666 FILLER_0_21_113
*667 FILLER_0_21_125
*668 FILLER_0_21_137
*669 FILLER_0_21_149
*670 FILLER_0_21_15
*671 FILLER_0_21_161
*672 FILLER_0_21_167
*673 FILLER_0_21_169
*674 FILLER_0_21_181
*675 FILLER_0_21_193
*676 FILLER_0_21_205
*677 FILLER_0_21_217
*678 FILLER_0_21_223
*679 FILLER_0_21_225
*680 FILLER_0_21_237
*681 FILLER_0_21_249
*682 FILLER_0_21_261
*683 FILLER_0_21_27
*684 FILLER_0_21_273
*685 FILLER_0_21_279
*686 FILLER_0_21_281
*687 FILLER_0_21_293
*688 FILLER_0_21_3
*689 FILLER_0_21_305
*690 FILLER_0_21_317
*691 FILLER_0_21_329
*692 FILLER_0_21_39
*693 FILLER_0_21_51
*694 FILLER_0_21_55
*695 FILLER_0_21_57
*696 FILLER_0_21_69
*697 FILLER_0_21_81
*698 FILLER_0_21_93
*699 FILLER_0_22_109
*700 FILLER_0_22_121
*701 FILLER_0_22_133
*702 FILLER_0_22_139
*703 FILLER_0_22_141
*704 FILLER_0_22_15
*705 FILLER_0_22_153
*706 FILLER_0_22_165
*707 FILLER_0_22_177
*708 FILLER_0_22_189
*709 FILLER_0_22_195
*710 FILLER_0_22_197
*711 FILLER_0_22_209
*712 FILLER_0_22_221
*713 FILLER_0_22_233
*714 FILLER_0_22_245
*715 FILLER_0_22_251
*716 FILLER_0_22_253
*717 FILLER_0_22_265
*718 FILLER_0_22_27
*719 FILLER_0_22_277
*720 FILLER_0_22_289
*721 FILLER_0_22_29
*722 FILLER_0_22_3
*723 FILLER_0_22_301
*724 FILLER_0_22_307
*725 FILLER_0_22_309
*726 FILLER_0_22_321
*727 FILLER_0_22_333
*728 FILLER_0_22_41
*729 FILLER_0_22_53
*730 FILLER_0_22_65
*731 FILLER_0_22_77
*732 FILLER_0_22_83
*733 FILLER_0_22_85
*734 FILLER_0_22_97
*735 FILLER_0_23_105
*736 FILLER_0_23_111
*737 FILLER_0_23_113
*738 FILLER_0_23_125
*739 FILLER_0_23_137
*740 FILLER_0_23_149
*741 FILLER_0_23_15
*742 FILLER_0_23_161
*743 FILLER_0_23_167
*744 FILLER_0_23_169
*745 FILLER_0_23_181
*746 FILLER_0_23_193
*747 FILLER_0_23_205
*748 FILLER_0_23_217
*749 FILLER_0_23_223
*750 FILLER_0_23_225
*751 FILLER_0_23_237
*752 FILLER_0_23_249
*753 FILLER_0_23_261
*754 FILLER_0_23_27
*755 FILLER_0_23_273
*756 FILLER_0_23_279
*757 FILLER_0_23_281
*758 FILLER_0_23_293
*759 FILLER_0_23_3
*760 FILLER_0_23_305
*761 FILLER_0_23_317
*762 FILLER_0_23_329
*763 FILLER_0_23_39
*764 FILLER_0_23_51
*765 FILLER_0_23_55
*766 FILLER_0_23_57
*767 FILLER_0_23_69
*768 FILLER_0_23_81
*769 FILLER_0_23_93
*770 FILLER_0_24_109
*771 FILLER_0_24_121
*772 FILLER_0_24_133
*773 FILLER_0_24_139
*774 FILLER_0_24_141
*775 FILLER_0_24_15
*776 FILLER_0_24_153
*777 FILLER_0_24_165
*778 FILLER_0_24_177
*779 FILLER_0_24_189
*780 FILLER_0_24_195
*781 FILLER_0_24_197
*782 FILLER_0_24_209
*783 FILLER_0_24_221
*784 FILLER_0_24_233
*785 FILLER_0_24_245
*786 FILLER_0_24_251
*787 FILLER_0_24_253
*788 FILLER_0_24_265
*789 FILLER_0_24_27
*790 FILLER_0_24_277
*791 FILLER_0_24_289
*792 FILLER_0_24_29
*793 FILLER_0_24_3
*794 FILLER_0_24_301
*795 FILLER_0_24_307
*796 FILLER_0_24_309
*797 FILLER_0_24_321
*798 FILLER_0_24_333
*799 FILLER_0_24_41
*800 FILLER_0_24_53
*801 FILLER_0_24_65
*802 FILLER_0_24_77
*803 FILLER_0_24_83
*804 FILLER_0_24_85
*805 FILLER_0_24_97
*806 FILLER_0_25_105
*807 FILLER_0_25_111
*808 FILLER_0_25_113
*809 FILLER_0_25_125
*810 FILLER_0_25_137
*811 FILLER_0_25_149
*812 FILLER_0_25_15
*813 FILLER_0_25_161
*814 FILLER_0_25_167
*815 FILLER_0_25_169
*816 FILLER_0_25_181
*817 FILLER_0_25_193
*818 FILLER_0_25_205
*819 FILLER_0_25_217
*820 FILLER_0_25_223
*821 FILLER_0_25_225
*822 FILLER_0_25_237
*823 FILLER_0_25_249
*824 FILLER_0_25_261
*825 FILLER_0_25_27
*826 FILLER_0_25_273
*827 FILLER_0_25_279
*828 FILLER_0_25_281
*829 FILLER_0_25_293
*830 FILLER_0_25_3
*831 FILLER_0_25_305
*832 FILLER_0_25_317
*833 FILLER_0_25_329
*834 FILLER_0_25_39
*835 FILLER_0_25_51
*836 FILLER_0_25_55
*837 FILLER_0_25_57
*838 FILLER_0_25_69
*839 FILLER_0_25_81
*840 FILLER_0_25_93
*841 FILLER_0_26_109
*842 FILLER_0_26_121
*843 FILLER_0_26_133
*844 FILLER_0_26_139
*845 FILLER_0_26_141
*846 FILLER_0_26_15
*847 FILLER_0_26_153
*848 FILLER_0_26_165
*849 FILLER_0_26_177
*850 FILLER_0_26_189
*851 FILLER_0_26_195
*852 FILLER_0_26_197
*853 FILLER_0_26_209
*854 FILLER_0_26_221
*855 FILLER_0_26_233
*856 FILLER_0_26_245
*857 FILLER_0_26_251
*858 FILLER_0_26_253
*859 FILLER_0_26_265
*860 FILLER_0_26_27
*861 FILLER_0_26_277
*862 FILLER_0_26_289
*863 FILLER_0_26_29
*864 FILLER_0_26_3
*865 FILLER_0_26_301
*866 FILLER_0_26_307
*867 FILLER_0_26_309
*868 FILLER_0_26_321
*869 FILLER_0_26_333
*870 FILLER_0_26_41
*871 FILLER_0_26_53
*872 FILLER_0_26_65
*873 FILLER_0_26_77
*874 FILLER_0_26_83
*875 FILLER_0_26_85
*876 FILLER_0_26_97
*877 FILLER_0_27_105
*878 FILLER_0_27_111
*879 FILLER_0_27_113
*880 FILLER_0_27_125
*881 FILLER_0_27_137
*882 FILLER_0_27_149
*883 FILLER_0_27_15
*884 FILLER_0_27_161
*885 FILLER_0_27_167
*886 FILLER_0_27_169
*887 FILLER_0_27_181
*888 FILLER_0_27_193
*889 FILLER_0_27_205
*890 FILLER_0_27_217
*891 FILLER_0_27_223
*892 FILLER_0_27_225
*893 FILLER_0_27_237
*894 FILLER_0_27_249
*895 FILLER_0_27_261
*896 FILLER_0_27_27
*897 FILLER_0_27_273
*898 FILLER_0_27_279
*899 FILLER_0_27_281
*900 FILLER_0_27_293
*901 FILLER_0_27_3
*902 FILLER_0_27_305
*903 FILLER_0_27_317
*904 FILLER_0_27_329
*905 FILLER_0_27_39
*906 FILLER_0_27_51
*907 FILLER_0_27_55
*908 FILLER_0_27_57
*909 FILLER_0_27_69
*910 FILLER_0_27_81
*911 FILLER_0_27_93
*912 FILLER_0_28_109
*913 FILLER_0_28_121
*914 FILLER_0_28_133
*915 FILLER_0_28_139
*916 FILLER_0_28_141
*917 FILLER_0_28_15
*918 FILLER_0_28_153
*919 FILLER_0_28_165
*920 FILLER_0_28_177
*921 FILLER_0_28_189
*922 FILLER_0_28_195
*923 FILLER_0_28_197
*924 FILLER_0_28_209
*925 FILLER_0_28_221
*926 FILLER_0_28_233
*927 FILLER_0_28_245
*928 FILLER_0_28_251
*929 FILLER_0_28_253
*930 FILLER_0_28_265
*931 FILLER_0_28_27
*932 FILLER_0_28_277
*933 FILLER_0_28_289
*934 FILLER_0_28_29
*935 FILLER_0_28_3
*936 FILLER_0_28_301
*937 FILLER_0_28_307
*938 FILLER_0_28_309
*939 FILLER_0_28_321
*940 FILLER_0_28_333
*941 FILLER_0_28_41
*942 FILLER_0_28_53
*943 FILLER_0_28_65
*944 FILLER_0_28_77
*945 FILLER_0_28_83
*946 FILLER_0_28_85
*947 FILLER_0_28_97
*948 FILLER_0_29_105
*949 FILLER_0_29_111
*950 FILLER_0_29_113
*951 FILLER_0_29_125
*952 FILLER_0_29_137
*953 FILLER_0_29_149
*954 FILLER_0_29_15
*955 FILLER_0_29_161
*956 FILLER_0_29_167
*957 FILLER_0_29_169
*958 FILLER_0_29_175
*959 FILLER_0_29_187
*960 FILLER_0_29_199
*961 FILLER_0_29_211
*962 FILLER_0_29_221
*963 FILLER_0_29_232
*964 FILLER_0_29_244
*965 FILLER_0_29_256
*966 FILLER_0_29_268
*967 FILLER_0_29_27
*968 FILLER_0_29_281
*969 FILLER_0_29_293
*970 FILLER_0_29_3
*971 FILLER_0_29_305
*972 FILLER_0_29_317
*973 FILLER_0_29_329
*974 FILLER_0_29_39
*975 FILLER_0_29_51
*976 FILLER_0_29_55
*977 FILLER_0_29_57
*978 FILLER_0_29_69
*979 FILLER_0_29_81
*980 FILLER_0_29_93
*981 FILLER_0_2_109
*982 FILLER_0_2_121
*983 FILLER_0_2_133
*984 FILLER_0_2_139
*985 FILLER_0_2_141
*986 FILLER_0_2_15
*987 FILLER_0_2_153
*988 FILLER_0_2_165
*989 FILLER_0_2_177
*990 FILLER_0_2_189
*991 FILLER_0_2_195
*992 FILLER_0_2_197
*993 FILLER_0_2_209
*994 FILLER_0_2_221
*995 FILLER_0_2_233
*996 FILLER_0_2_245
*997 FILLER_0_2_251
*998 FILLER_0_2_253
*999 FILLER_0_2_265
*1000 FILLER_0_2_27
*1001 FILLER_0_2_277
*1002 FILLER_0_2_289
*1003 FILLER_0_2_29
*1004 FILLER_0_2_3
*1005 FILLER_0_2_301
*1006 FILLER_0_2_307
*1007 FILLER_0_2_309
*1008 FILLER_0_2_321
*1009 FILLER_0_2_333
*1010 FILLER_0_2_41
*1011 FILLER_0_2_53
*1012 FILLER_0_2_65
*1013 FILLER_0_2_77
*1014 FILLER_0_2_83
*1015 FILLER_0_2_85
*1016 FILLER_0_2_97
*1017 FILLER_0_30_109
*1018 FILLER_0_30_121
*1019 FILLER_0_30_133
*1020 FILLER_0_30_139
*1021 FILLER_0_30_141
*1022 FILLER_0_30_15
*1023 FILLER_0_30_153
*1024 FILLER_0_30_161
*1025 FILLER_0_30_181
*1026 FILLER_0_30_211
*1027 FILLER_0_30_222
*1028 FILLER_0_30_244
*1029 FILLER_0_30_253
*1030 FILLER_0_30_265
*1031 FILLER_0_30_27
*1032 FILLER_0_30_277
*1033 FILLER_0_30_289
*1034 FILLER_0_30_29
*1035 FILLER_0_30_3
*1036 FILLER_0_30_301
*1037 FILLER_0_30_307
*1038 FILLER_0_30_309
*1039 FILLER_0_30_321
*1040 FILLER_0_30_333
*1041 FILLER_0_30_41
*1042 FILLER_0_30_53
*1043 FILLER_0_30_65
*1044 FILLER_0_30_77
*1045 FILLER_0_30_83
*1046 FILLER_0_30_85
*1047 FILLER_0_30_97
*1048 FILLER_0_31_105
*1049 FILLER_0_31_111
*1050 FILLER_0_31_113
*1051 FILLER_0_31_125
*1052 FILLER_0_31_137
*1053 FILLER_0_31_15
*1054 FILLER_0_31_156
*1055 FILLER_0_31_172
*1056 FILLER_0_31_176
*1057 FILLER_0_31_181
*1058 FILLER_0_31_211
*1059 FILLER_0_31_223
*1060 FILLER_0_31_225
*1061 FILLER_0_31_233
*1062 FILLER_0_31_260
*1063 FILLER_0_31_27
*1064 FILLER_0_31_281
*1065 FILLER_0_31_293
*1066 FILLER_0_31_3
*1067 FILLER_0_31_305
*1068 FILLER_0_31_314
*1069 FILLER_0_31_326
*1070 FILLER_0_31_334
*1071 FILLER_0_31_39
*1072 FILLER_0_31_51
*1073 FILLER_0_31_55
*1074 FILLER_0_31_57
*1075 FILLER_0_31_69
*1076 FILLER_0_31_81
*1077 FILLER_0_31_93
*1078 FILLER_0_32_109
*1079 FILLER_0_32_121
*1080 FILLER_0_32_133
*1081 FILLER_0_32_15
*1082 FILLER_0_32_165
*1083 FILLER_0_32_171
*1084 FILLER_0_32_212
*1085 FILLER_0_32_224
*1086 FILLER_0_32_253
*1087 FILLER_0_32_261
*1088 FILLER_0_32_27
*1089 FILLER_0_32_287
*1090 FILLER_0_32_29
*1091 FILLER_0_32_295
*1092 FILLER_0_32_3
*1093 FILLER_0_32_322
*1094 FILLER_0_32_330
*1095 FILLER_0_32_41
*1096 FILLER_0_32_53
*1097 FILLER_0_32_65
*1098 FILLER_0_32_77
*1099 FILLER_0_32_83
*1100 FILLER_0_32_85
*1101 FILLER_0_32_97
*1102 FILLER_0_33_105
*1103 FILLER_0_33_111
*1104 FILLER_0_33_113
*1105 FILLER_0_33_125
*1106 FILLER_0_33_129
*1107 FILLER_0_33_140
*1108 FILLER_0_33_15
*1109 FILLER_0_33_151
*1110 FILLER_0_33_161
*1111 FILLER_0_33_167
*1112 FILLER_0_33_169
*1113 FILLER_0_33_177
*1114 FILLER_0_33_184
*1115 FILLER_0_33_188
*1116 FILLER_0_33_201
*1117 FILLER_0_33_209
*1118 FILLER_0_33_215
*1119 FILLER_0_33_223
*1120 FILLER_0_33_225
*1121 FILLER_0_33_259
*1122 FILLER_0_33_27
*1123 FILLER_0_33_277
*1124 FILLER_0_33_3
*1125 FILLER_0_33_302
*1126 FILLER_0_33_334
*1127 FILLER_0_33_39
*1128 FILLER_0_33_51
*1129 FILLER_0_33_55
*1130 FILLER_0_33_57
*1131 FILLER_0_33_69
*1132 FILLER_0_33_81
*1133 FILLER_0_33_93
*1134 FILLER_0_34_109
*1135 FILLER_0_34_121
*1136 FILLER_0_34_138
*1137 FILLER_0_34_15
*1138 FILLER_0_34_151
*1139 FILLER_0_34_163
*1140 FILLER_0_34_175
*1141 FILLER_0_34_179
*1142 FILLER_0_34_186
*1143 FILLER_0_34_194
*1144 FILLER_0_34_197
*1145 FILLER_0_34_205
*1146 FILLER_0_34_230
*1147 FILLER_0_34_259
*1148 FILLER_0_34_27
*1149 FILLER_0_34_29
*1150 FILLER_0_34_293
*1151 FILLER_0_34_3
*1152 FILLER_0_34_41
*1153 FILLER_0_34_53
*1154 FILLER_0_34_65
*1155 FILLER_0_34_77
*1156 FILLER_0_34_83
*1157 FILLER_0_34_85
*1158 FILLER_0_34_97
*1159 FILLER_0_35_105
*1160 FILLER_0_35_111
*1161 FILLER_0_35_113
*1162 FILLER_0_35_125
*1163 FILLER_0_35_143
*1164 FILLER_0_35_15
*1165 FILLER_0_35_156
*1166 FILLER_0_35_169
*1167 FILLER_0_35_173
*1168 FILLER_0_35_203
*1169 FILLER_0_35_215
*1170 FILLER_0_35_223
*1171 FILLER_0_35_233
*1172 FILLER_0_35_249
*1173 FILLER_0_35_258
*1174 FILLER_0_35_27
*1175 FILLER_0_35_289
*1176 FILLER_0_35_3
*1177 FILLER_0_35_300
*1178 FILLER_0_35_311
*1179 FILLER_0_35_325
*1180 FILLER_0_35_334
*1181 FILLER_0_35_39
*1182 FILLER_0_35_51
*1183 FILLER_0_35_55
*1184 FILLER_0_35_57
*1185 FILLER_0_35_69
*1186 FILLER_0_35_81
*1187 FILLER_0_35_93
*1188 FILLER_0_36_109
*1189 FILLER_0_36_121
*1190 FILLER_0_36_15
*1191 FILLER_0_36_172
*1192 FILLER_0_36_209
*1193 FILLER_0_36_215
*1194 FILLER_0_36_240
*1195 FILLER_0_36_269
*1196 FILLER_0_36_27
*1197 FILLER_0_36_287
*1198 FILLER_0_36_29
*1199 FILLER_0_36_298
*1200 FILLER_0_36_3
*1201 FILLER_0_36_314
*1202 FILLER_0_36_334
*1203 FILLER_0_36_41
*1204 FILLER_0_36_53
*1205 FILLER_0_36_65
*1206 FILLER_0_36_77
*1207 FILLER_0_36_83
*1208 FILLER_0_36_85
*1209 FILLER_0_36_97
*1210 FILLER_0_37_105
*1211 FILLER_0_37_111
*1212 FILLER_0_37_113
*1213 FILLER_0_37_125
*1214 FILLER_0_37_15
*1215 FILLER_0_37_160
*1216 FILLER_0_37_169
*1217 FILLER_0_37_177
*1218 FILLER_0_37_186
*1219 FILLER_0_37_200
*1220 FILLER_0_37_249
*1221 FILLER_0_37_261
*1222 FILLER_0_37_27
*1223 FILLER_0_37_278
*1224 FILLER_0_37_289
*1225 FILLER_0_37_3
*1226 FILLER_0_37_333
*1227 FILLER_0_37_39
*1228 FILLER_0_37_51
*1229 FILLER_0_37_55
*1230 FILLER_0_37_57
*1231 FILLER_0_37_69
*1232 FILLER_0_37_81
*1233 FILLER_0_37_93
*1234 FILLER_0_38_10
*1235 FILLER_0_38_102
*1236 FILLER_0_38_106
*1237 FILLER_0_38_110
*1238 FILLER_0_38_113
*1239 FILLER_0_38_118
*1240 FILLER_0_38_122
*1241 FILLER_0_38_126
*1242 FILLER_0_38_138
*1243 FILLER_0_38_14
*1244 FILLER_0_38_141
*1245 FILLER_0_38_145
*1246 FILLER_0_38_158
*1247 FILLER_0_38_166
*1248 FILLER_0_38_169
*1249 FILLER_0_38_18
*1250 FILLER_0_38_181
*1251 FILLER_0_38_191
*1252 FILLER_0_38_195
*1253 FILLER_0_38_197
*1254 FILLER_0_38_209
*1255 FILLER_0_38_22
*1256 FILLER_0_38_221
*1257 FILLER_0_38_225
*1258 FILLER_0_38_250
*1259 FILLER_0_38_256
*1260 FILLER_0_38_278
*1261 FILLER_0_38_32
*1262 FILLER_0_38_322
*1263 FILLER_0_38_38
*1264 FILLER_0_38_42
*1265 FILLER_0_38_46
*1266 FILLER_0_38_50
*1267 FILLER_0_38_54
*1268 FILLER_0_38_57
*1269 FILLER_0_38_6
*1270 FILLER_0_38_62
*1271 FILLER_0_38_66
*1272 FILLER_0_38_70
*1273 FILLER_0_38_74
*1274 FILLER_0_38_78
*1275 FILLER_0_38_88
*1276 FILLER_0_38_94
*1277 FILLER_0_38_98
*1278 FILLER_0_3_105
*1279 FILLER_0_3_111
*1280 FILLER_0_3_113
*1281 FILLER_0_3_125
*1282 FILLER_0_3_137
*1283 FILLER_0_3_149
*1284 FILLER_0_3_15
*1285 FILLER_0_3_161
*1286 FILLER_0_3_167
*1287 FILLER_0_3_169
*1288 FILLER_0_3_181
*1289 FILLER_0_3_193
*1290 FILLER_0_3_205
*1291 FILLER_0_3_217
*1292 FILLER_0_3_223
*1293 FILLER_0_3_225
*1294 FILLER_0_3_237
*1295 FILLER_0_3_249
*1296 FILLER_0_3_261
*1297 FILLER_0_3_27
*1298 FILLER_0_3_273
*1299 FILLER_0_3_279
*1300 FILLER_0_3_281
*1301 FILLER_0_3_293
*1302 FILLER_0_3_3
*1303 FILLER_0_3_305
*1304 FILLER_0_3_317
*1305 FILLER_0_3_329
*1306 FILLER_0_3_39
*1307 FILLER_0_3_51
*1308 FILLER_0_3_55
*1309 FILLER_0_3_57
*1310 FILLER_0_3_69
*1311 FILLER_0_3_81
*1312 FILLER_0_3_93
*1313 FILLER_0_4_109
*1314 FILLER_0_4_121
*1315 FILLER_0_4_133
*1316 FILLER_0_4_139
*1317 FILLER_0_4_141
*1318 FILLER_0_4_15
*1319 FILLER_0_4_153
*1320 FILLER_0_4_165
*1321 FILLER_0_4_177
*1322 FILLER_0_4_189
*1323 FILLER_0_4_195
*1324 FILLER_0_4_197
*1325 FILLER_0_4_209
*1326 FILLER_0_4_221
*1327 FILLER_0_4_233
*1328 FILLER_0_4_245
*1329 FILLER_0_4_251
*1330 FILLER_0_4_253
*1331 FILLER_0_4_265
*1332 FILLER_0_4_27
*1333 FILLER_0_4_277
*1334 FILLER_0_4_289
*1335 FILLER_0_4_29
*1336 FILLER_0_4_3
*1337 FILLER_0_4_301
*1338 FILLER_0_4_307
*1339 FILLER_0_4_309
*1340 FILLER_0_4_321
*1341 FILLER_0_4_333
*1342 FILLER_0_4_41
*1343 FILLER_0_4_53
*1344 FILLER_0_4_65
*1345 FILLER_0_4_77
*1346 FILLER_0_4_83
*1347 FILLER_0_4_85
*1348 FILLER_0_4_97
*1349 FILLER_0_5_105
*1350 FILLER_0_5_111
*1351 FILLER_0_5_113
*1352 FILLER_0_5_125
*1353 FILLER_0_5_137
*1354 FILLER_0_5_149
*1355 FILLER_0_5_15
*1356 FILLER_0_5_161
*1357 FILLER_0_5_167
*1358 FILLER_0_5_169
*1359 FILLER_0_5_181
*1360 FILLER_0_5_193
*1361 FILLER_0_5_205
*1362 FILLER_0_5_217
*1363 FILLER_0_5_223
*1364 FILLER_0_5_225
*1365 FILLER_0_5_237
*1366 FILLER_0_5_249
*1367 FILLER_0_5_261
*1368 FILLER_0_5_27
*1369 FILLER_0_5_273
*1370 FILLER_0_5_279
*1371 FILLER_0_5_281
*1372 FILLER_0_5_293
*1373 FILLER_0_5_3
*1374 FILLER_0_5_305
*1375 FILLER_0_5_317
*1376 FILLER_0_5_329
*1377 FILLER_0_5_39
*1378 FILLER_0_5_51
*1379 FILLER_0_5_55
*1380 FILLER_0_5_57
*1381 FILLER_0_5_69
*1382 FILLER_0_5_81
*1383 FILLER_0_5_93
*1384 FILLER_0_6_109
*1385 FILLER_0_6_121
*1386 FILLER_0_6_133
*1387 FILLER_0_6_139
*1388 FILLER_0_6_141
*1389 FILLER_0_6_15
*1390 FILLER_0_6_153
*1391 FILLER_0_6_165
*1392 FILLER_0_6_177
*1393 FILLER_0_6_189
*1394 FILLER_0_6_195
*1395 FILLER_0_6_197
*1396 FILLER_0_6_209
*1397 FILLER_0_6_221
*1398 FILLER_0_6_233
*1399 FILLER_0_6_245
*1400 FILLER_0_6_251
*1401 FILLER_0_6_253
*1402 FILLER_0_6_265
*1403 FILLER_0_6_27
*1404 FILLER_0_6_277
*1405 FILLER_0_6_289
*1406 FILLER_0_6_29
*1407 FILLER_0_6_3
*1408 FILLER_0_6_301
*1409 FILLER_0_6_307
*1410 FILLER_0_6_309
*1411 FILLER_0_6_321
*1412 FILLER_0_6_333
*1413 FILLER_0_6_41
*1414 FILLER_0_6_53
*1415 FILLER_0_6_65
*1416 FILLER_0_6_77
*1417 FILLER_0_6_83
*1418 FILLER_0_6_85
*1419 FILLER_0_6_97
*1420 FILLER_0_7_105
*1421 FILLER_0_7_111
*1422 FILLER_0_7_113
*1423 FILLER_0_7_125
*1424 FILLER_0_7_137
*1425 FILLER_0_7_149
*1426 FILLER_0_7_15
*1427 FILLER_0_7_161
*1428 FILLER_0_7_167
*1429 FILLER_0_7_169
*1430 FILLER_0_7_181
*1431 FILLER_0_7_193
*1432 FILLER_0_7_205
*1433 FILLER_0_7_217
*1434 FILLER_0_7_223
*1435 FILLER_0_7_225
*1436 FILLER_0_7_237
*1437 FILLER_0_7_249
*1438 FILLER_0_7_261
*1439 FILLER_0_7_27
*1440 FILLER_0_7_273
*1441 FILLER_0_7_279
*1442 FILLER_0_7_281
*1443 FILLER_0_7_293
*1444 FILLER_0_7_3
*1445 FILLER_0_7_305
*1446 FILLER_0_7_317
*1447 FILLER_0_7_329
*1448 FILLER_0_7_39
*1449 FILLER_0_7_51
*1450 FILLER_0_7_55
*1451 FILLER_0_7_57
*1452 FILLER_0_7_69
*1453 FILLER_0_7_81
*1454 FILLER_0_7_93
*1455 FILLER_0_8_109
*1456 FILLER_0_8_121
*1457 FILLER_0_8_133
*1458 FILLER_0_8_139
*1459 FILLER_0_8_141
*1460 FILLER_0_8_15
*1461 FILLER_0_8_153
*1462 FILLER_0_8_165
*1463 FILLER_0_8_177
*1464 FILLER_0_8_189
*1465 FILLER_0_8_195
*1466 FILLER_0_8_197
*1467 FILLER_0_8_209
*1468 FILLER_0_8_221
*1469 FILLER_0_8_233
*1470 FILLER_0_8_245
*1471 FILLER_0_8_251
*1472 FILLER_0_8_253
*1473 FILLER_0_8_265
*1474 FILLER_0_8_27
*1475 FILLER_0_8_277
*1476 FILLER_0_8_289
*1477 FILLER_0_8_29
*1478 FILLER_0_8_3
*1479 FILLER_0_8_301
*1480 FILLER_0_8_307
*1481 FILLER_0_8_309
*1482 FILLER_0_8_321
*1483 FILLER_0_8_333
*1484 FILLER_0_8_41
*1485 FILLER_0_8_53
*1486 FILLER_0_8_65
*1487 FILLER_0_8_77
*1488 FILLER_0_8_83
*1489 FILLER_0_8_85
*1490 FILLER_0_8_97
*1491 FILLER_0_9_105
*1492 FILLER_0_9_111
*1493 FILLER_0_9_113
*1494 FILLER_0_9_125
*1495 FILLER_0_9_137
*1496 FILLER_0_9_149
*1497 FILLER_0_9_15
*1498 FILLER_0_9_161
*1499 FILLER_0_9_167