*SPEF "ieee 1481-1999"
*DESIGN "tt_um_mayrmichael_wave_generator"
*DATE "07:36:40 Wednesday April 10, 2024"
*VENDOR "The OpenROAD Project"
*PROGRAM "OpenROAD"
*VERSION "0889970d1790a2617e69f253221b8bd7626e51dc"
*DESIGN_FLOW "NAME_SCOPE LOCAL" "PIN_CAP NONE"
*DIVIDER /
*DELIMITER :
*BUS_DELIMITER []
*T_UNIT 1 NS
*C_UNIT 1 PF
*R_UNIT 1 OHM
*L_UNIT 1 HENRY

*NAME_MAP
*3 clk
*4 ena
*5 rst_n
*6 ui_in[0]
*7 ui_in[1]
*8 ui_in[2]
*9 ui_in[3]
*10 ui_in[4]
*11 ui_in[5]
*12 ui_in[6]
*13 ui_in[7]
*14 uio_in[0]
*15 uio_in[1]
*16 uio_in[2]
*17 uio_in[3]
*18 uio_in[4]
*19 uio_in[5]
*20 uio_in[6]
*21 uio_in[7]
*22 net16
*23 net17
*24 net18
*25 net19
*26 net20
*27 net26
*28 net27
*29 net28
*30 net21
*31 net22
*32 net23
*33 net24
*34 net25
*35 uio_out[5]
*36 uio_out[6]
*37 uio_out[7]
*38 uo_out[0]
*39 uo_out[1]
*40 uo_out[2]
*41 uo_out[3]
*42 uo_out[4]
*43 uo_out[5]
*44 uo_out[6]
*45 uo_out[7]
*46 _0000_
*47 _0001_
*48 _0002_
*49 _0003_
*50 _0004_
*51 _0005_
*52 _0006_
*53 _0007_
*54 _0008_
*55 _0009_
*56 _0010_
*57 _0011_
*58 _0012_
*59 _0013_
*60 _0014_
*61 _0015_
*62 _0016_
*63 _0017_
*64 _0018_
*65 _0019_
*66 _0020_
*67 _0021_
*68 _0022_
*69 _0023_
*70 _0024_
*71 _0025_
*72 _0026_
*73 _0027_
*74 _0028_
*75 _0029_
*76 _0030_
*77 _0031_
*78 _0032_
*79 _0033_
*80 _0034_
*81 _0035_
*82 _0036_
*83 _0037_
*84 _0038_
*85 _0039_
*86 _0040_
*87 _0041_
*88 _0042_
*89 _0043_
*90 _0044_
*91 _0045_
*92 _0046_
*93 _0047_
*94 _0048_
*95 _0049_
*96 _0050_
*97 _0051_
*98 _0052_
*99 _0053_
*100 _0054_
*101 _0055_
*102 _0056_
*103 _0057_
*104 _0058_
*105 _0059_
*106 _0060_
*107 _0061_
*108 _0062_
*109 _0063_
*110 _0064_
*111 _0065_
*112 _0066_
*113 _0067_
*114 _0068_
*115 _0069_
*116 _0070_
*117 _0071_
*118 _0072_
*119 _0073_
*120 _0074_
*121 _0075_
*122 _0076_
*123 _0077_
*124 _0078_
*125 _0079_
*126 _0080_
*127 _0081_
*128 _0082_
*129 _0083_
*130 _0084_
*131 _0085_
*132 _0086_
*133 _0087_
*134 _0088_
*135 _0089_
*136 _0090_
*137 _0091_
*138 _0092_
*139 _0093_
*140 _0094_
*141 _0095_
*142 _0096_
*143 _0097_
*144 _0098_
*145 _0099_
*146 _0100_
*147 _0101_
*148 _0102_
*149 _0103_
*150 _0104_
*151 _0105_
*152 _0106_
*153 _0107_
*154 _0108_
*155 _0109_
*156 _0110_
*157 _0111_
*158 _0112_
*159 _0113_
*160 _0114_
*161 _0115_
*162 _0116_
*163 _0117_
*164 _0118_
*165 _0119_
*166 _0120_
*167 _0121_
*168 _0122_
*169 _0123_
*170 _0124_
*171 _0125_
*172 _0126_
*173 _0127_
*174 _0128_
*175 _0129_
*176 _0130_
*177 _0131_
*178 _0132_
*179 _0133_
*180 _0134_
*181 _0135_
*182 _0136_
*183 _0137_
*184 _0138_
*185 _0139_
*186 _0140_
*187 _0141_
*188 _0142_
*189 _0143_
*190 _0144_
*191 _0145_
*192 _0146_
*193 _0147_
*194 _0148_
*195 _0149_
*196 _0150_
*197 _0151_
*198 _0152_
*199 _0153_
*200 _0154_
*201 _0155_
*202 _0156_
*203 _0157_
*204 _0158_
*205 _0159_
*206 _0160_
*207 _0161_
*208 _0162_
*209 _0163_
*210 _0164_
*211 _0165_
*212 _0166_
*213 _0167_
*214 _0168_
*215 _0169_
*216 _0170_
*217 _0171_
*218 _0172_
*219 _0173_
*220 _0174_
*221 _0175_
*222 _0176_
*223 _0177_
*224 _0178_
*225 _0179_
*226 _0180_
*227 _0181_
*228 _0182_
*229 _0183_
*230 _0184_
*231 _0185_
*232 _0186_
*233 _0187_
*234 _0188_
*235 _0189_
*236 _0190_
*237 _0191_
*238 _0192_
*239 _0193_
*240 _0194_
*241 _0195_
*242 _0196_
*243 _0197_
*244 _0198_
*245 _0199_
*246 _0200_
*247 _0201_
*248 _0202_
*249 _0203_
*250 _0204_
*251 _0205_
*252 _0206_
*253 _0207_
*254 _0208_
*255 _0209_
*256 _0210_
*257 _0211_
*258 _0212_
*259 _0213_
*260 _0214_
*261 _0215_
*262 _0216_
*263 _0217_
*264 _0218_
*265 _0219_
*266 _0220_
*267 _0221_
*268 _0222_
*269 _0223_
*270 _0224_
*271 _0225_
*272 _0226_
*273 _0227_
*274 _0228_
*275 _0229_
*276 _0230_
*277 _0231_
*278 _0232_
*279 _0233_
*280 _0234_
*281 _0235_
*282 _0236_
*283 _0237_
*284 _0238_
*285 _0239_
*286 _0240_
*287 _0241_
*288 _0242_
*289 _0243_
*290 _0244_
*291 _0245_
*292 _0246_
*293 _0247_
*294 _0248_
*295 _0249_
*296 _0250_
*297 _0251_
*298 _0252_
*299 _0253_
*300 _0254_
*301 _0255_
*302 _0256_
*303 _0257_
*304 _0258_
*305 _0259_
*306 _0260_
*307 _0261_
*308 _0262_
*309 _0263_
*310 _0264_
*311 _0265_
*312 _0266_
*313 _0267_
*314 _0268_
*315 _0269_
*316 _0270_
*317 _0271_
*318 _0272_
*319 _0273_
*320 _0274_
*321 _0275_
*322 _0276_
*323 _0277_
*324 _0278_
*325 _0279_
*326 _0280_
*327 _0281_
*328 _0282_
*329 _0283_
*330 _0284_
*331 _0285_
*332 _0286_
*333 _0287_
*334 _0288_
*335 _0289_
*336 _0290_
*337 _0291_
*338 _0292_
*339 _0293_
*340 _0294_
*341 _0295_
*342 _0296_
*343 _0297_
*344 _0298_
*345 _0299_
*346 _0300_
*347 _0301_
*348 _0302_
*349 _0303_
*350 _0304_
*351 _0305_
*352 _0306_
*353 _0307_
*354 _0308_
*355 _0309_
*356 _0310_
*357 _0311_
*358 _0312_
*359 _0313_
*360 _0314_
*361 _0315_
*362 _0316_
*363 _0317_
*364 _0318_
*365 _0319_
*366 _0320_
*367 _0321_
*368 _0322_
*369 _0323_
*370 _0324_
*371 _0325_
*372 _0326_
*373 _0327_
*374 _0328_
*375 _0329_
*376 _0330_
*377 _0331_
*378 _0332_
*379 _0333_
*380 _0334_
*381 _0335_
*382 _0336_
*383 _0337_
*384 _0338_
*385 _0339_
*386 _0340_
*387 _0341_
*388 _0342_
*389 _0343_
*390 _0344_
*391 _0345_
*392 _0346_
*393 _0347_
*394 _0348_
*395 _0349_
*396 _0350_
*397 _0351_
*398 _0352_
*399 _0353_
*400 _0354_
*401 _0355_
*402 _0356_
*403 _0357_
*404 _0358_
*405 _0359_
*406 _0360_
*407 _0361_
*408 _0362_
*409 _0363_
*410 _0364_
*411 _0365_
*412 _0366_
*413 _0367_
*414 _0368_
*415 _0369_
*416 _0370_
*417 _0371_
*418 _0372_
*419 _0373_
*420 _0374_
*421 _0375_
*422 _0376_
*423 _0377_
*424 _0378_
*425 _0379_
*426 _0380_
*427 _0381_
*428 _0382_
*429 _0383_
*430 _0384_
*431 _0385_
*432 _0386_
*433 _0387_
*434 _0388_
*435 _0389_
*436 _0390_
*437 _0391_
*438 _0392_
*439 _0393_
*440 _0394_
*441 _0395_
*442 _0396_
*443 _0397_
*444 _0398_
*445 _0399_
*446 _0400_
*447 _0401_
*448 _0402_
*449 _0403_
*450 _0404_
*451 _0405_
*452 _0406_
*453 _0407_
*454 _0408_
*455 _0409_
*456 _0410_
*457 _0411_
*458 _0412_
*459 _0413_
*460 _0414_
*461 _0415_
*462 _0416_
*463 _0417_
*464 _0418_
*465 _0419_
*466 _0420_
*467 _0421_
*468 _0422_
*469 _0423_
*470 _0424_
*471 _0425_
*472 _0426_
*473 _0427_
*474 _0428_
*475 _0429_
*476 _0430_
*477 _0431_
*478 _0432_
*479 _0433_
*480 _0434_
*481 _0435_
*482 _0436_
*483 _0437_
*484 _0438_
*485 _0439_
*486 _0440_
*487 _0441_
*488 _0442_
*489 _0443_
*490 _0444_
*491 _0445_
*492 _0446_
*493 _0447_
*494 _0448_
*495 _0449_
*496 _0450_
*497 _0451_
*498 _0452_
*499 _0453_
*500 _0454_
*501 _0455_
*502 _0456_
*503 _0457_
*504 _0458_
*505 _0459_
*506 _0460_
*507 _0461_
*508 _0462_
*509 _0463_
*510 _0464_
*511 _0465_
*512 _0466_
*513 _0467_
*514 _0468_
*515 _0469_
*516 _0470_
*517 _0471_
*518 _0472_
*519 _0473_
*520 _0474_
*521 _0475_
*522 _0476_
*523 _0477_
*524 _0478_
*525 _0479_
*526 _0480_
*527 _0481_
*528 _0482_
*529 _0483_
*530 _0484_
*531 _0485_
*532 _0486_
*533 _0487_
*534 _0488_
*535 _0489_
*536 _0490_
*537 _0491_
*538 _0492_
*539 _0493_
*540 _0494_
*541 _0495_
*542 _0496_
*543 _0497_
*544 _0498_
*545 _0499_
*546 _0500_
*547 _0501_
*548 _0502_
*549 _0503_
*550 _0504_
*551 _0505_
*552 _0506_
*553 _0507_
*554 _0508_
*555 _0509_
*556 _0510_
*557 _0511_
*558 _0512_
*559 _0513_
*560 _0514_
*561 _0515_
*562 _0516_
*563 _0517_
*564 _0518_
*565 _0519_
*566 _0520_
*567 _0521_
*568 _0522_
*569 _0523_
*570 _0524_
*571 _0525_
*572 _0526_
*573 _0527_
*574 _0528_
*575 _0529_
*576 _0530_
*577 _0531_
*578 _0532_
*579 _0533_
*580 _0534_
*581 _0535_
*582 _0536_
*583 _0537_
*584 _0538_
*585 _0539_
*586 _0540_
*587 _0541_
*588 _0542_
*589 _0543_
*590 _0544_
*591 _0545_
*592 _0546_
*593 _0547_
*594 _0548_
*595 _0549_
*596 _0550_
*597 _0551_
*598 _0552_
*599 _0553_
*600 _0554_
*601 _0555_
*602 _0556_
*603 _0557_
*604 _0558_
*605 _0559_
*606 _0560_
*607 _0561_
*608 _0562_
*609 _0563_
*610 _0564_
*611 _0565_
*612 _0566_
*613 _0567_
*614 _0568_
*615 _0569_
*616 _0570_
*617 _0571_
*618 _0572_
*619 _0573_
*620 _0574_
*621 _0575_
*622 _0576_
*623 _0577_
*624 _0578_
*625 _0579_
*626 _0580_
*627 _0581_
*628 _0582_
*629 _0583_
*630 _0584_
*631 _0585_
*632 _0586_
*633 _0587_
*634 _0588_
*635 _0589_
*636 _0590_
*637 _0591_
*638 _0592_
*639 _0593_
*640 _0594_
*641 _0595_
*642 _0596_
*643 _0597_
*644 _0598_
*645 _0599_
*646 _0600_
*647 _0601_
*648 _0602_
*649 _0603_
*650 _0604_
*651 _0605_
*652 _0606_
*653 _0607_
*654 _0608_
*655 _0609_
*656 _0610_
*657 _0611_
*658 _0612_
*659 _0613_
*660 _0614_
*661 _0615_
*662 _0616_
*663 _0617_
*664 _0618_
*665 _0619_
*666 _0620_
*667 _0621_
*668 _0622_
*669 _0623_
*670 _0624_
*671 _0625_
*672 _0626_
*673 _0627_
*674 _0628_
*675 _0629_
*676 _0630_
*677 _0631_
*678 _0632_
*679 _0633_
*680 _0634_
*681 _0635_
*682 _0636_
*683 _0637_
*684 _0638_
*685 _0639_
*686 _0640_
*687 _0641_
*688 _0642_
*689 _0643_
*690 _0644_
*691 _0645_
*692 _0646_
*693 _0647_
*694 _0648_
*695 _0649_
*696 _0650_
*697 _0651_
*698 _0652_
*699 _0653_
*700 _0654_
*701 _0655_
*702 _0656_
*703 _0657_
*704 _0658_
*705 _0659_
*706 _0660_
*707 _0661_
*708 _0662_
*709 _0663_
*710 _0664_
*711 _0665_
*712 _0666_
*713 _0667_
*714 _0668_
*715 _0669_
*716 _0670_
*717 _0671_
*718 _0672_
*719 _0673_
*720 _0674_
*721 _0675_
*722 _0676_
*723 _0677_
*724 _0678_
*725 _0679_
*726 _0680_
*727 _0681_
*728 _0682_
*729 _0683_
*730 _0684_
*731 _0685_
*732 _0686_
*733 _0687_
*734 _0688_
*735 _0689_
*736 _0690_
*737 _0691_
*738 _0692_
*739 _0693_
*740 _0694_
*741 _0695_
*742 _0696_
*743 _0697_
*744 _0698_
*745 _0699_
*746 _0700_
*747 _0701_
*748 _0702_
*749 _0703_
*750 _0704_
*751 _0705_
*752 _0706_
*753 _0707_
*754 _0708_
*755 _0709_
*756 _0710_
*757 _0711_
*758 _0712_
*759 _0713_
*760 _0714_
*761 _0715_
*762 _0716_
*763 _0717_
*764 _0718_
*765 _0719_
*766 _0720_
*767 _0721_
*768 _0722_
*769 _0723_
*770 _0724_
*771 _0725_
*772 _0726_
*773 _0727_
*774 _0728_
*775 _0729_
*776 _0730_
*777 _0731_
*778 _0732_
*779 _0733_
*780 _0734_
*781 _0735_
*782 _0736_
*783 _0737_
*784 _0738_
*785 _0739_
*786 clknet_0_clk
*787 clknet_4_0_0_clk
*788 clknet_4_10_0_clk
*789 clknet_4_11_0_clk
*790 clknet_4_12_0_clk
*791 clknet_4_13_0_clk
*792 clknet_4_14_0_clk
*793 clknet_4_15_0_clk
*794 clknet_4_1_0_clk
*795 clknet_4_2_0_clk
*796 clknet_4_3_0_clk
*797 clknet_4_4_0_clk
*798 clknet_4_5_0_clk
*799 clknet_4_6_0_clk
*800 clknet_4_7_0_clk
*801 clknet_4_8_0_clk
*802 clknet_4_9_0_clk
*803 net1
*804 net10
*805 net11
*806 net12
*807 net13
*808 net14
*809 net15
*810 net2
*811 net29
*812 net3
*813 net30
*814 net31
*815 net32
*816 net33
*817 net34
*818 net35
*819 net36
*820 net37
*821 net38
*822 net39
*823 net4
*824 net40
*825 net41
*826 net42
*827 net43
*828 net44
*829 net45
*830 net46
*831 net47
*832 net48
*833 net49
*834 net5
*835 net50
*836 net51
*837 net52
*838 net53
*839 net54
*840 net55
*841 net56
*842 net57
*843 net58
*844 net59
*845 net6
*846 net60
*847 net61
*848 net62
*849 net63
*850 net64
*851 net65
*852 net66
*853 net67
*854 net68
*855 net69
*856 net7
*857 net70
*858 net71
*859 net72
*860 net73
*861 net74
*862 net75
*863 net76
*864 net77
*865 net78
*866 net79
*867 net8
*868 net80
*869 net81
*870 net82
*871 net83
*872 net84
*873 net85
*874 net86
*875 net87
*876 net88
*877 net89
*878 net9
*879 net90
*880 net91
*881 spi_master_only_tx_single_cs_inst\.cs
*882 spi_master_only_tx_single_cs_inst\.cs_inactive_counter
*883 spi_master_only_tx_single_cs_inst\.data_in_valid_strobe_i
*884 spi_master_only_tx_single_cs_inst\.spi_clk_o
*885 spi_master_only_tx_single_cs_inst\.spi_master_only_tx_inst\.data_in_valid_strobe
*886 spi_master_only_tx_single_cs_inst\.spi_master_only_tx_inst\.next_spi_clk_additional
*887 spi_master_only_tx_single_cs_inst\.spi_master_only_tx_inst\.spi_clk_counter\[0\]
*888 spi_master_only_tx_single_cs_inst\.spi_master_only_tx_inst\.spi_clk_counter\[1\]
*889 spi_master_only_tx_single_cs_inst\.spi_master_only_tx_inst\.spi_clk_edges\[0\]
*890 spi_master_only_tx_single_cs_inst\.spi_master_only_tx_inst\.spi_clk_edges\[1\]
*891 spi_master_only_tx_single_cs_inst\.spi_master_only_tx_inst\.spi_clk_edges\[2\]
*892 spi_master_only_tx_single_cs_inst\.spi_master_only_tx_inst\.spi_clk_edges\[3\]
*893 spi_master_only_tx_single_cs_inst\.spi_master_only_tx_inst\.spi_clk_edges\[4\]
*894 spi_master_only_tx_single_cs_inst\.spi_master_only_tx_inst\.spi_mosi
*895 spi_master_only_tx_single_cs_inst\.spi_master_only_tx_inst\.trailing_edge
*896 spi_master_only_tx_single_cs_inst\.spi_master_only_tx_inst\.tx_bit_counter\[0\]
*897 spi_master_only_tx_single_cs_inst\.spi_master_only_tx_inst\.tx_bit_counter\[1\]
*898 spi_master_only_tx_single_cs_inst\.spi_master_only_tx_inst\.tx_bit_counter\[2\]
*899 spi_master_only_tx_single_cs_inst\.spi_master_only_tx_inst\.tx_ready
*900 spi_master_only_tx_single_cs_inst\.state\[0\]
*901 spi_master_only_tx_single_cs_inst\.state\[1\]
*902 spi_master_only_tx_single_cs_inst\.state\[2\]
*903 wave_generator_inst\.amplitude\[0\]
*904 wave_generator_inst\.amplitude\[1\]
*905 wave_generator_inst\.amplitude\[2\]
*906 wave_generator_inst\.amplitude\[3\]
*907 wave_generator_inst\.amplitude\[4\]
*908 wave_generator_inst\.amplitude\[5\]
*909 wave_generator_inst\.amplitude\[6\]
*910 wave_generator_inst\.amplitude\[7\]
*911 wave_generator_inst\.data_sawtooth\[0\]
*912 wave_generator_inst\.data_sawtooth\[1\]
*913 wave_generator_inst\.data_sawtooth\[2\]
*914 wave_generator_inst\.data_sawtooth\[3\]
*915 wave_generator_inst\.data_sawtooth\[4\]
*916 wave_generator_inst\.data_sawtooth\[5\]
*917 wave_generator_inst\.data_sawtooth\[6\]
*918 wave_generator_inst\.data_sawtooth\[7\]
*919 wave_generator_inst\.data_sawtooth_out_valid_strobe
*920 wave_generator_inst\.data_sin\[0\]
*921 wave_generator_inst\.data_sin\[1\]
*922 wave_generator_inst\.data_sin\[2\]
*923 wave_generator_inst\.data_sin\[3\]
*924 wave_generator_inst\.data_sin\[4\]
*925 wave_generator_inst\.data_sin\[5\]
*926 wave_generator_inst\.data_sin\[6\]
*927 wave_generator_inst\.data_sin\[7\]
*928 wave_generator_inst\.data_sin_out_valid_strobe
*929 wave_generator_inst\.data_square_puls\[0\]
*930 wave_generator_inst\.data_square_puls\[1\]
*931 wave_generator_inst\.data_square_puls\[7\]
*932 wave_generator_inst\.data_square_puls_out_valid_strobe
*933 wave_generator_inst\.data_triangle\[0\]
*934 wave_generator_inst\.data_triangle\[1\]
*935 wave_generator_inst\.data_triangle\[2\]
*936 wave_generator_inst\.data_triangle\[3\]
*937 wave_generator_inst\.data_triangle\[4\]
*938 wave_generator_inst\.data_triangle\[5\]
*939 wave_generator_inst\.data_triangle\[6\]
*940 wave_generator_inst\.data_triangle\[7\]
*941 wave_generator_inst\.data_triangle_out_valid_strobe
*942 wave_generator_inst\.phase\[0\]
*943 wave_generator_inst\.phase\[1\]
*944 wave_generator_inst\.phase\[2\]
*945 wave_generator_inst\.phase\[3\]
*946 wave_generator_inst\.phase\[4\]
*947 wave_generator_inst\.phase\[5\]
*948 wave_generator_inst\.phase\[6\]
*949 wave_generator_inst\.phase\[7\]
*950 wave_generator_inst\.sin_generator_inst\.cordic_convergence_inst\.next_z\[0\]
*951 wave_generator_inst\.sin_generator_inst\.cordic_convergence_inst\.next_z\[1\]
*952 wave_generator_inst\.sin_generator_inst\.cordic_convergence_inst\.next_z\[2\]
*953 wave_generator_inst\.sin_generator_inst\.cordic_convergence_inst\.next_z\[3\]
*954 wave_generator_inst\.sin_generator_inst\.cordic_convergence_inst\.next_z\[4\]
*955 wave_generator_inst\.sin_generator_inst\.cordic_convergence_inst\.next_z\[5\]
*956 wave_generator_inst\.sin_generator_inst\.cordic_convergence_inst\.x_o\[0\]
*957 wave_generator_inst\.sin_generator_inst\.cordic_convergence_inst\.x_o\[1\]
*958 wave_generator_inst\.sin_generator_inst\.cordic_convergence_inst\.x_o\[2\]
*959 wave_generator_inst\.sin_generator_inst\.cordic_convergence_inst\.x_o\[3\]
*960 wave_generator_inst\.sin_generator_inst\.cordic_convergence_inst\.x_o\[4\]
*961 wave_generator_inst\.sin_generator_inst\.cordic_convergence_inst\.x_o\[5\]
*962 wave_generator_inst\.sin_generator_inst\.cordic_convergence_inst\.x_o\[6\]
*963 wave_generator_inst\.sin_generator_inst\.cordic_convergence_inst\.x_o\[7\]
*964 wave_generator_inst\.sin_generator_inst\.cordic_convergence_inst\.y_o\[0\]
*965 wave_generator_inst\.sin_generator_inst\.cordic_convergence_inst\.y_o\[1\]
*966 wave_generator_inst\.sin_generator_inst\.cordic_convergence_inst\.y_o\[2\]
*967 wave_generator_inst\.sin_generator_inst\.cordic_convergence_inst\.y_o\[3\]
*968 wave_generator_inst\.sin_generator_inst\.cordic_convergence_inst\.y_o\[4\]
*969 wave_generator_inst\.sin_generator_inst\.cordic_convergence_inst\.y_o\[5\]
*970 wave_generator_inst\.sin_generator_inst\.cordic_convergence_inst\.y_o\[6\]
*971 wave_generator_inst\.sin_generator_inst\.cordic_convergence_inst\.y_o\[7\]
*972 wave_generator_inst\.sin_generator_inst\.cordic_convergence_inst\.z_i\[6\]
*973 wave_generator_inst\.sin_generator_inst\.cordic_convergence_inst\.z_i\[7\]
*974 wave_generator_inst\.sin_generator_inst\.cordic_convergence_inst\.z_o\[0\]
*975 wave_generator_inst\.sin_generator_inst\.cordic_convergence_inst\.z_o\[1\]
*976 wave_generator_inst\.sin_generator_inst\.cordic_convergence_inst\.z_o\[2\]
*977 wave_generator_inst\.sin_generator_inst\.cordic_convergence_inst\.z_o\[3\]
*978 wave_generator_inst\.sin_generator_inst\.cordic_convergence_inst\.z_o\[4\]
*979 wave_generator_inst\.sin_generator_inst\.cordic_convergence_inst\.z_o\[5\]
*980 wave_generator_inst\.sin_generator_inst\.cordic_convergence_inst\.z_o\[6\]
*981 wave_generator_inst\.sin_generator_inst\.cordic_convergence_inst\.z_o\[7\]
*982 wave_generator_inst\.sin_generator_inst\.cordic_iterative_inst\.cordic_slice_inst\.x_o\[0\]
*983 wave_generator_inst\.sin_generator_inst\.cordic_iterative_inst\.cordic_slice_inst\.x_o\[1\]
*984 wave_generator_inst\.sin_generator_inst\.cordic_iterative_inst\.cordic_slice_inst\.x_o\[2\]
*985 wave_generator_inst\.sin_generator_inst\.cordic_iterative_inst\.cordic_slice_inst\.x_o\[3\]
*986 wave_generator_inst\.sin_generator_inst\.cordic_iterative_inst\.cordic_slice_inst\.x_o\[4\]
*987 wave_generator_inst\.sin_generator_inst\.cordic_iterative_inst\.cordic_slice_inst\.x_o\[5\]
*988 wave_generator_inst\.sin_generator_inst\.cordic_iterative_inst\.cordic_slice_inst\.x_o\[6\]
*989 wave_generator_inst\.sin_generator_inst\.cordic_iterative_inst\.cordic_slice_inst\.x_o\[7\]
*990 wave_generator_inst\.sin_generator_inst\.cordic_iterative_inst\.cordic_slice_inst\.z_o\[0\]
*991 wave_generator_inst\.sin_generator_inst\.cordic_iterative_inst\.cordic_slice_inst\.z_o\[1\]
*992 wave_generator_inst\.sin_generator_inst\.cordic_iterative_inst\.cordic_slice_inst\.z_o\[2\]
*993 wave_generator_inst\.sin_generator_inst\.cordic_iterative_inst\.cordic_slice_inst\.z_o\[3\]
*994 wave_generator_inst\.sin_generator_inst\.cordic_iterative_inst\.cordic_slice_inst\.z_o\[4\]
*995 wave_generator_inst\.sin_generator_inst\.cordic_iterative_inst\.cordic_slice_inst\.z_o\[5\]
*996 wave_generator_inst\.sin_generator_inst\.cordic_iterative_inst\.cordic_slice_inst\.z_o\[6\]
*997 wave_generator_inst\.sin_generator_inst\.cordic_iterative_inst\.cordic_slice_inst\.z_o\[7\]
*998 wave_generator_inst\.sin_generator_inst\.cordic_iterative_inst\.counter_value\[0\]
*999 wave_generator_inst\.sin_generator_inst\.cordic_iterative_inst\.counter_value\[1\]
*1000 wave_generator_inst\.sin_generator_inst\.cordic_iterative_inst\.counter_value\[2\]
*1001 wave_generator_inst\.sin_generator_inst\.cordic_iterative_inst\.input_select
*1002 wave_generator_inst\.sin_generator_inst\.cordic_iterative_inst\.next_input_select
*1003 wave_generator_inst\.sin_generator_inst\.cordic_iterative_inst\.state\[0\]
*1004 wave_generator_inst\.sin_generator_inst\.cordic_iterative_inst\.state\[1\]
*1005 wave_generator_inst\.sin_generator_inst\.get_next_data_strobe_i
*1006 wave_generator_inst\.strobe_generator_inst\.counter\[0\]
*1007 wave_generator_inst\.strobe_generator_inst\.counter\[1\]
*1008 wave_generator_inst\.strobe_generator_inst\.counter\[2\]
*1009 wave_generator_inst\.strobe_generator_inst\.counter\[3\]
*1010 wave_generator_inst\.strobe_generator_inst\.counter\[4\]
*1011 wave_generator_inst\.strobe_generator_inst\.counter\[5\]
*1012 wave_generator_inst\.strobe_generator_inst\.counter\[6\]
*1013 wave_generator_inst\.top_triangle_generator_inst\.triangle_generator_inst\.counter
*1014 wave_generator_inst\.top_triangle_generator_inst\.triangle_generator_inst\.next_data_out_valid_strobe
*1015 wave_generator_inst\.top_triangle_generator_inst\.triangle_generator_inst\.old_signed_bit
*1016 wave_generator_inst\.top_triangle_generator_inst\.triangle_generator_inst\.reverse
*1017 FILLER_0_0_109
*1018 FILLER_0_0_113
*1019 FILLER_0_0_125
*1020 FILLER_0_0_137
*1021 FILLER_0_0_141
*1022 FILLER_0_0_15
*1023 FILLER_0_0_153
*1024 FILLER_0_0_165
*1025 FILLER_0_0_169
*1026 FILLER_0_0_181
*1027 FILLER_0_0_193
*1028 FILLER_0_0_200
*1029 FILLER_0_0_212
*1030 FILLER_0_0_225
*1031 FILLER_0_0_237
*1032 FILLER_0_0_249
*1033 FILLER_0_0_253
*1034 FILLER_0_0_265
*1035 FILLER_0_0_27
*1036 FILLER_0_0_277
*1037 FILLER_0_0_281
*1038 FILLER_0_0_29
*1039 FILLER_0_0_293
*1040 FILLER_0_0_3
*1041 FILLER_0_0_305
*1042 FILLER_0_0_309
*1043 FILLER_0_0_321
*1044 FILLER_0_0_333
*1045 FILLER_0_0_41
*1046 FILLER_0_0_53
*1047 FILLER_0_0_57
*1048 FILLER_0_0_69
*1049 FILLER_0_0_81
*1050 FILLER_0_0_85
*1051 FILLER_0_0_97
*1052 FILLER_0_10_101
*1053 FILLER_0_10_109
*1054 FILLER_0_10_118
*1055 FILLER_0_10_130
*1056 FILLER_0_10_138
*1057 FILLER_0_10_141
*1058 FILLER_0_10_147
*1059 FILLER_0_10_15
*1060 FILLER_0_10_189
*1061 FILLER_0_10_195
*1062 FILLER_0_10_197
*1063 FILLER_0_10_209
*1064 FILLER_0_10_234
*1065 FILLER_0_10_249
*1066 FILLER_0_10_253
*1067 FILLER_0_10_27
*1068 FILLER_0_10_29
*1069 FILLER_0_10_290
*1070 FILLER_0_10_3
*1071 FILLER_0_10_301
*1072 FILLER_0_10_307
*1073 FILLER_0_10_312
*1074 FILLER_0_10_322
*1075 FILLER_0_10_334
*1076 FILLER_0_10_45
*1077 FILLER_0_10_62
*1078 FILLER_0_10_74
*1079 FILLER_0_10_82
*1080 FILLER_0_10_91
*1081 FILLER_0_11_101
*1082 FILLER_0_11_11
*1083 FILLER_0_11_111
*1084 FILLER_0_11_116
*1085 FILLER_0_11_126
*1086 FILLER_0_11_138
*1087 FILLER_0_11_144
*1088 FILLER_0_11_161
*1089 FILLER_0_11_165
*1090 FILLER_0_11_169
*1091 FILLER_0_11_181
*1092 FILLER_0_11_19
*1093 FILLER_0_11_193
*1094 FILLER_0_11_200
*1095 FILLER_0_11_207
*1096 FILLER_0_11_225
*1097 FILLER_0_11_23
*1098 FILLER_0_11_249
*1099 FILLER_0_11_261
*1100 FILLER_0_11_273
*1101 FILLER_0_11_279
*1102 FILLER_0_11_292
*1103 FILLER_0_11_3
*1104 FILLER_0_11_304
*1105 FILLER_0_11_324
*1106 FILLER_0_11_330
*1107 FILLER_0_11_334
*1108 FILLER_0_11_46
*1109 FILLER_0_11_54
*1110 FILLER_0_11_57
*1111 FILLER_0_11_63
*1112 FILLER_0_11_73
*1113 FILLER_0_11_91
*1114 FILLER_0_12_101
*1115 FILLER_0_12_113
*1116 FILLER_0_12_128
*1117 FILLER_0_12_144
*1118 FILLER_0_12_15
*1119 FILLER_0_12_157
*1120 FILLER_0_12_164
*1121 FILLER_0_12_172
*1122 FILLER_0_12_192
*1123 FILLER_0_12_197
*1124 FILLER_0_12_205
*1125 FILLER_0_12_251
*1126 FILLER_0_12_253
*1127 FILLER_0_12_259
*1128 FILLER_0_12_284
*1129 FILLER_0_12_29
*1130 FILLER_0_12_296
*1131 FILLER_0_12_3
*1132 FILLER_0_12_333
*1133 FILLER_0_12_38
*1134 FILLER_0_12_50
*1135 FILLER_0_12_72
*1136 FILLER_0_13_11
*1137 FILLER_0_13_113
*1138 FILLER_0_13_156
*1139 FILLER_0_13_162
*1140 FILLER_0_13_169
*1141 FILLER_0_13_191
*1142 FILLER_0_13_203
*1143 FILLER_0_13_212
*1144 FILLER_0_13_241
*1145 FILLER_0_13_252
*1146 FILLER_0_13_260
*1147 FILLER_0_13_278
*1148 FILLER_0_13_288
*1149 FILLER_0_13_3
*1150 FILLER_0_13_300
*1151 FILLER_0_13_317
*1152 FILLER_0_13_33
*1153 FILLER_0_13_332
*1154 FILLER_0_13_41
*1155 FILLER_0_13_48
*1156 FILLER_0_13_57
*1157 FILLER_0_13_65
*1158 FILLER_0_13_73
*1159 FILLER_0_14_11
*1160 FILLER_0_14_130
*1161 FILLER_0_14_138
*1162 FILLER_0_14_141
*1163 FILLER_0_14_149
*1164 FILLER_0_14_155
*1165 FILLER_0_14_167
*1166 FILLER_0_14_179
*1167 FILLER_0_14_197
*1168 FILLER_0_14_209
*1169 FILLER_0_14_221
*1170 FILLER_0_14_230
*1171 FILLER_0_14_236
*1172 FILLER_0_14_245
*1173 FILLER_0_14_251
*1174 FILLER_0_14_253
*1175 FILLER_0_14_284
*1176 FILLER_0_14_296
*1177 FILLER_0_14_3
*1178 FILLER_0_14_306
*1179 FILLER_0_14_32
*1180 FILLER_0_14_329
*1181 FILLER_0_14_44
*1182 FILLER_0_14_48
*1183 FILLER_0_14_54
*1184 FILLER_0_14_66
*1185 FILLER_0_14_72
*1186 FILLER_0_14_85
*1187 FILLER_0_14_97
*1188 FILLER_0_15_110
*1189 FILLER_0_15_132
*1190 FILLER_0_15_138
*1191 FILLER_0_15_15
*1192 FILLER_0_15_158
*1193 FILLER_0_15_162
*1194 FILLER_0_15_169
*1195 FILLER_0_15_175
*1196 FILLER_0_15_205
*1197 FILLER_0_15_237
*1198 FILLER_0_15_247
*1199 FILLER_0_15_259
*1200 FILLER_0_15_267
*1201 FILLER_0_15_278
*1202 FILLER_0_15_281
*1203 FILLER_0_15_293
*1204 FILLER_0_15_3
*1205 FILLER_0_15_301
*1206 FILLER_0_15_326
*1207 FILLER_0_15_334
*1208 FILLER_0_15_41
*1209 FILLER_0_15_51
*1210 FILLER_0_15_57
*1211 FILLER_0_15_86
*1212 FILLER_0_15_98
*1213 FILLER_0_16_104
*1214 FILLER_0_16_116
*1215 FILLER_0_16_135
*1216 FILLER_0_16_139
*1217 FILLER_0_16_15
*1218 FILLER_0_16_152
*1219 FILLER_0_16_164
*1220 FILLER_0_16_172
*1221 FILLER_0_16_200
*1222 FILLER_0_16_212
*1223 FILLER_0_16_231
*1224 FILLER_0_16_235
*1225 FILLER_0_16_253
*1226 FILLER_0_16_262
*1227 FILLER_0_16_27
*1228 FILLER_0_16_281
*1229 FILLER_0_16_293
*1230 FILLER_0_16_3
*1231 FILLER_0_16_305
*1232 FILLER_0_16_309
*1233 FILLER_0_16_32
*1234 FILLER_0_16_323
*1235 FILLER_0_16_36
*1236 FILLER_0_16_51
*1237 FILLER_0_16_63
*1238 FILLER_0_16_80
*1239 FILLER_0_16_88
*1240 FILLER_0_16_92
*1241 FILLER_0_16_96
*1242 FILLER_0_17_113
*1243 FILLER_0_17_125
*1244 FILLER_0_17_15
*1245 FILLER_0_17_154
*1246 FILLER_0_17_166
*1247 FILLER_0_17_169
*1248 FILLER_0_17_175
*1249 FILLER_0_17_199
*1250 FILLER_0_17_211
*1251 FILLER_0_17_219
*1252 FILLER_0_17_225
*1253 FILLER_0_17_262
*1254 FILLER_0_17_27
*1255 FILLER_0_17_284
*1256 FILLER_0_17_296
*1257 FILLER_0_17_3
*1258 FILLER_0_17_300
*1259 FILLER_0_17_331
*1260 FILLER_0_17_45
*1261 FILLER_0_17_53
*1262 FILLER_0_17_57
*1263 FILLER_0_17_63
*1264 FILLER_0_17_81
*1265 FILLER_0_17_85
*1266 FILLER_0_17_97
*1267 FILLER_0_18_116
*1268 FILLER_0_18_124
*1269 FILLER_0_18_136
*1270 FILLER_0_18_141
*1271 FILLER_0_18_146
*1272 FILLER_0_18_15
*1273 FILLER_0_18_168
*1274 FILLER_0_18_194
*1275 FILLER_0_18_197
*1276 FILLER_0_18_209
*1277 FILLER_0_18_221
*1278 FILLER_0_18_232
*1279 FILLER_0_18_251
*1280 FILLER_0_18_256
*1281 FILLER_0_18_264
*1282 FILLER_0_18_27
*1283 FILLER_0_18_279
*1284 FILLER_0_18_29
*1285 FILLER_0_18_297
*1286 FILLER_0_18_3
*1287 FILLER_0_18_305
*1288 FILLER_0_18_325
*1289 FILLER_0_18_333
*1290 FILLER_0_18_35
*1291 FILLER_0_18_85
*1292 FILLER_0_19_109
*1293 FILLER_0_19_113
*1294 FILLER_0_19_120
*1295 FILLER_0_19_128
*1296 FILLER_0_19_15
*1297 FILLER_0_19_162
*1298 FILLER_0_19_169
*1299 FILLER_0_19_199
*1300 FILLER_0_19_211
*1301 FILLER_0_19_223
*1302 FILLER_0_19_225
*1303 FILLER_0_19_237
*1304 FILLER_0_19_249
*1305 FILLER_0_19_261
*1306 FILLER_0_19_27
*1307 FILLER_0_19_278
*1308 FILLER_0_19_281
*1309 FILLER_0_19_293
*1310 FILLER_0_19_3
*1311 FILLER_0_19_301
*1312 FILLER_0_19_308
*1313 FILLER_0_19_318
*1314 FILLER_0_19_330
*1315 FILLER_0_19_334
*1316 FILLER_0_19_39
*1317 FILLER_0_19_51
*1318 FILLER_0_19_55
*1319 FILLER_0_19_57
*1320 FILLER_0_19_61
*1321 FILLER_0_19_65
*1322 FILLER_0_1_110
*1323 FILLER_0_1_113
*1324 FILLER_0_1_117
*1325 FILLER_0_1_138
*1326 FILLER_0_1_142
*1327 FILLER_0_1_15
*1328 FILLER_0_1_159
*1329 FILLER_0_1_167
*1330 FILLER_0_1_169
*1331 FILLER_0_1_187
*1332 FILLER_0_1_206
*1333 FILLER_0_1_242
*1334 FILLER_0_1_254
*1335 FILLER_0_1_27
*1336 FILLER_0_1_278
*1337 FILLER_0_1_281
*1338 FILLER_0_1_293
*1339 FILLER_0_1_3
*1340 FILLER_0_1_312
*1341 FILLER_0_1_324
*1342 FILLER_0_1_332
*1343 FILLER_0_1_39
*1344 FILLER_0_1_51
*1345 FILLER_0_1_55
*1346 FILLER_0_1_73
*1347 FILLER_0_1_81
*1348 FILLER_0_1_98
*1349 FILLER_0_20_101
*1350 FILLER_0_20_124
*1351 FILLER_0_20_128
*1352 FILLER_0_20_138
*1353 FILLER_0_20_147
*1354 FILLER_0_20_15
*1355 FILLER_0_20_191
*1356 FILLER_0_20_195
*1357 FILLER_0_20_200
*1358 FILLER_0_20_212
*1359 FILLER_0_20_231
*1360 FILLER_0_20_243
*1361 FILLER_0_20_251
*1362 FILLER_0_20_253
*1363 FILLER_0_20_259
*1364 FILLER_0_20_27
*1365 FILLER_0_20_272
*1366 FILLER_0_20_284
*1367 FILLER_0_20_3
*1368 FILLER_0_20_303
*1369 FILLER_0_20_315
*1370 FILLER_0_20_327
*1371 FILLER_0_20_44
*1372 FILLER_0_20_56
*1373 FILLER_0_20_68
*1374 FILLER_0_20_83
*1375 FILLER_0_20_85
*1376 FILLER_0_20_97
*1377 FILLER_0_21_110
*1378 FILLER_0_21_129
*1379 FILLER_0_21_140
*1380 FILLER_0_21_157
*1381 FILLER_0_21_165
*1382 FILLER_0_21_169
*1383 FILLER_0_21_184
*1384 FILLER_0_21_201
*1385 FILLER_0_21_213
*1386 FILLER_0_21_219
*1387 FILLER_0_21_223
*1388 FILLER_0_21_241
*1389 FILLER_0_21_259
*1390 FILLER_0_21_289
*1391 FILLER_0_21_3
*1392 FILLER_0_21_31
*1393 FILLER_0_21_325
*1394 FILLER_0_21_333
*1395 FILLER_0_21_50
*1396 FILLER_0_21_57
*1397 FILLER_0_21_69
*1398 FILLER_0_21_75
*1399 FILLER_0_21_79
*1400 FILLER_0_21_86
*1401 FILLER_0_21_98
*1402 FILLER_0_22_103
*1403 FILLER_0_22_11
*1404 FILLER_0_22_115
*1405 FILLER_0_22_127
*1406 FILLER_0_22_139
*1407 FILLER_0_22_153
*1408 FILLER_0_22_165
*1409 FILLER_0_22_179
*1410 FILLER_0_22_205
*1411 FILLER_0_22_239
*1412 FILLER_0_22_251
*1413 FILLER_0_22_253
*1414 FILLER_0_22_287
*1415 FILLER_0_22_299
*1416 FILLER_0_22_3
*1417 FILLER_0_22_307
*1418 FILLER_0_22_314
*1419 FILLER_0_22_332
*1420 FILLER_0_22_48
*1421 FILLER_0_22_59
*1422 FILLER_0_22_65
*1423 FILLER_0_22_96
*1424 FILLER_0_23_101
*1425 FILLER_0_23_108
*1426 FILLER_0_23_116
*1427 FILLER_0_23_15
*1428 FILLER_0_23_156
*1429 FILLER_0_23_169
*1430 FILLER_0_23_177
*1431 FILLER_0_23_201
*1432 FILLER_0_23_213
*1433 FILLER_0_23_243
*1434 FILLER_0_23_251
*1435 FILLER_0_23_261
*1436 FILLER_0_23_275
*1437 FILLER_0_23_279
*1438 FILLER_0_23_281
*1439 FILLER_0_23_289
*1440 FILLER_0_23_297
*1441 FILLER_0_23_3
*1442 FILLER_0_23_302
*1443 FILLER_0_23_310
*1444 FILLER_0_23_315
*1445 FILLER_0_23_324
*1446 FILLER_0_23_332
*1447 FILLER_0_23_55
*1448 FILLER_0_23_60
*1449 FILLER_0_24_122
*1450 FILLER_0_24_141
*1451 FILLER_0_24_15
*1452 FILLER_0_24_164
*1453 FILLER_0_24_172
*1454 FILLER_0_24_19
*1455 FILLER_0_24_211
*1456 FILLER_0_24_223
*1457 FILLER_0_24_242
*1458 FILLER_0_24_251
*1459 FILLER_0_24_253
*1460 FILLER_0_24_261
*1461 FILLER_0_24_269
*1462 FILLER_0_24_281
*1463 FILLER_0_24_293
*1464 FILLER_0_24_3
*1465 FILLER_0_24_326
*1466 FILLER_0_24_334
*1467 FILLER_0_24_41
*1468 FILLER_0_24_63
*1469 FILLER_0_24_75
*1470 FILLER_0_24_91