*SPEF "ieee 1481-1999"
*DESIGN "tt_um_mayrmichael_wave_generator"
*DATE "11:11:11 Fri 11 11, 1111"
*VENDOR "OpenRCX"
*PROGRAM "Parallel Extraction"
*VERSION "1.0"
*DESIGN_FLOW "NAME_SCOPE LOCAL" "PIN_CAP NONE"
*DIVIDER /
*DELIMITER :
*BUS_DELIMITER []
*T_UNIT 1 NS
*C_UNIT 1 PF
*R_UNIT 1 OHM
*L_UNIT 1 HENRY

*NAME_MAP
*3 clk
*4 ena
*5 rst_n
*6 ui_in[0]
*7 ui_in[1]
*8 ui_in[2]
*9 ui_in[3]
*10 ui_in[4]
*11 ui_in[5]
*12 ui_in[6]
*13 ui_in[7]
*14 uio_in[0]
*15 uio_in[1]
*16 uio_in[2]
*17 uio_in[3]
*18 uio_in[4]
*19 uio_in[5]
*20 uio_in[6]
*21 uio_in[7]
*22 net16
*23 net17
*24 net18
*25 net19
*26 net20
*27 net26
*28 net27
*29 net28
*30 net21
*31 net22
*32 net23
*33 net24
*34 net25
*35 uio_out[5]
*36 uio_out[6]
*37 uio_out[7]
*38 uo_out[0]
*39 uo_out[1]
*40 uo_out[2]
*41 uo_out[3]
*42 uo_out[4]
*43 uo_out[5]
*44 uo_out[6]
*45 uo_out[7]
*46 _0000_
*47 _0001_
*48 _0002_
*49 _0003_
*50 _0004_
*51 _0005_
*52 _0006_
*53 _0007_
*54 _0008_
*55 _0009_
*56 _0010_
*57 _0011_
*58 _0012_
*59 _0013_
*60 _0014_
*61 _0015_
*62 _0016_
*63 _0017_
*64 _0018_
*65 _0019_
*66 _0020_
*67 _0021_
*68 _0022_
*69 _0023_
*70 _0024_
*71 _0025_
*72 _0026_
*73 _0027_
*74 _0028_
*75 _0029_
*76 _0030_
*77 _0031_
*78 _0032_
*79 _0033_
*80 _0034_
*81 _0035_
*82 _0036_
*83 _0037_
*84 _0038_
*85 _0039_
*86 _0040_
*87 _0041_
*88 _0042_
*89 _0043_
*90 _0044_
*91 _0045_
*92 _0046_
*93 _0047_
*94 _0048_
*95 _0049_
*96 _0050_
*97 _0051_
*98 _0052_
*99 _0053_
*100 _0054_
*101 _0055_
*102 _0056_
*103 _0057_
*104 _0058_
*105 _0059_
*106 _0060_
*107 _0061_
*108 _0062_
*109 _0063_
*110 _0064_
*111 _0065_
*112 _0066_
*113 _0067_
*114 _0068_
*115 _0069_
*116 _0070_
*117 _0071_
*118 _0072_
*119 _0073_
*120 _0074_
*121 _0075_
*122 _0076_
*123 _0077_
*124 _0078_
*125 _0079_
*126 _0080_
*127 _0081_
*128 _0082_
*129 _0083_
*130 _0084_
*131 _0085_
*132 _0086_
*133 _0087_
*134 _0088_
*135 _0089_
*136 _0090_
*137 _0091_
*138 _0092_
*139 _0093_
*140 _0094_
*141 _0095_
*142 _0096_
*143 _0097_
*144 _0098_
*145 _0099_
*146 _0100_
*147 _0101_
*148 _0102_
*149 _0103_
*150 _0104_
*151 _0105_
*152 _0106_
*153 _0107_
*154 _0108_
*155 _0109_
*156 _0110_
*157 _0111_
*158 _0112_
*159 _0113_
*160 _0114_
*161 _0115_
*162 _0116_
*163 _0117_
*164 _0118_
*165 _0119_
*166 _0120_
*167 _0121_
*168 _0122_
*169 _0123_
*170 _0124_
*171 _0125_
*172 _0126_
*173 _0127_
*174 _0128_
*175 _0129_
*176 _0130_
*177 _0131_
*178 _0132_
*179 _0133_
*180 _0134_
*181 _0135_
*182 _0136_
*183 _0137_
*184 _0138_
*185 _0139_
*186 _0140_
*187 _0141_
*188 _0142_
*189 _0143_
*190 _0144_
*191 _0145_
*192 _0146_
*193 _0147_
*194 _0148_
*195 _0149_
*196 _0150_
*197 _0151_
*198 _0152_
*199 _0153_
*200 _0154_
*201 _0155_
*202 _0156_
*203 _0157_
*204 _0158_
*205 _0159_
*206 _0160_
*207 _0161_
*208 _0162_
*209 _0163_
*210 _0164_
*211 _0165_
*212 _0166_
*213 _0167_
*214 _0168_
*215 _0169_
*216 _0170_
*217 _0171_
*218 _0172_
*219 _0173_
*220 _0174_
*221 _0175_
*222 _0176_
*223 _0177_
*224 _0178_
*225 _0179_
*226 _0180_
*227 _0181_
*228 _0182_
*229 _0183_
*230 _0184_
*231 _0185_
*232 _0186_
*233 _0187_
*234 _0188_
*235 _0189_
*236 _0190_
*237 _0191_
*238 _0192_
*239 _0193_
*240 _0194_
*241 _0195_
*242 _0196_
*243 _0197_
*244 _0198_
*245 _0199_
*246 _0200_
*247 _0201_
*248 _0202_
*249 _0203_
*250 _0204_
*251 _0205_
*252 _0206_
*253 _0207_
*254 _0208_
*255 _0209_
*256 _0210_
*257 _0211_
*258 _0212_
*259 _0213_
*260 _0214_
*261 _0215_
*262 _0216_
*263 _0217_
*264 _0218_
*265 _0219_
*266 _0220_
*267 _0221_
*268 _0222_
*269 _0223_
*270 _0224_
*271 _0225_
*272 _0226_
*273 _0227_
*274 _0228_
*275 _0229_
*276 _0230_
*277 _0231_
*278 _0232_
*279 _0233_
*280 _0234_
*281 _0235_
*282 _0236_
*283 _0237_
*284 _0238_
*285 _0239_
*286 _0240_
*287 _0241_
*288 _0242_
*289 _0243_
*290 _0244_
*291 _0245_
*292 _0246_
*293 _0247_
*294 _0248_
*295 _0249_
*296 _0250_
*297 _0251_
*298 _0252_
*299 _0253_
*300 _0254_
*301 _0255_
*302 _0256_
*303 _0257_
*304 _0258_
*305 _0259_
*306 _0260_
*307 _0261_
*308 _0262_
*309 _0263_
*310 _0264_
*311 _0265_
*312 _0266_
*313 _0267_
*314 _0268_
*315 _0269_
*316 _0270_
*317 _0271_
*318 _0272_
*319 _0273_
*320 _0274_
*321 _0275_
*322 _0276_
*323 _0277_
*324 _0278_
*325 _0279_
*326 _0280_
*327 _0281_
*328 _0282_
*329 _0283_
*330 _0284_
*331 _0285_
*332 _0286_
*333 _0287_
*334 _0288_
*335 _0289_
*336 _0290_
*337 _0291_
*338 _0292_
*339 _0293_
*340 _0294_
*341 _0295_
*342 _0296_
*343 _0297_
*344 _0298_
*345 _0299_
*346 _0300_
*347 _0301_
*348 _0302_
*349 _0303_
*350 _0304_
*351 _0305_
*352 _0306_
*353 _0307_
*354 _0308_
*355 _0309_
*356 _0310_
*357 _0311_
*358 _0312_
*359 _0313_
*360 _0314_
*361 _0315_
*362 _0316_
*363 _0317_
*364 _0318_
*365 _0319_
*366 _0320_
*367 _0321_
*368 _0322_
*369 _0323_
*370 _0324_
*371 _0325_
*372 _0326_
*373 _0327_
*374 _0328_
*375 _0329_
*376 _0330_
*377 _0331_
*378 _0332_
*379 _0333_
*380 _0334_
*381 _0335_
*382 _0336_
*383 _0337_
*384 _0338_
*385 _0339_
*386 _0340_
*387 _0341_
*388 _0342_
*389 _0343_
*390 _0344_
*391 _0345_
*392 _0346_
*393 _0347_
*394 _0348_
*395 _0349_
*396 _0350_
*397 _0351_
*398 _0352_
*399 _0353_
*400 _0354_
*401 _0355_
*402 _0356_
*403 _0357_
*404 _0358_
*405 _0359_
*406 _0360_
*407 _0361_
*408 _0362_
*409 _0363_
*410 _0364_
*411 _0365_
*412 _0366_
*413 _0367_
*414 _0368_
*415 _0369_
*416 _0370_
*417 _0371_
*418 _0372_
*419 _0373_
*420 _0374_
*421 _0375_
*422 _0376_
*423 _0377_
*424 _0378_
*425 _0379_
*426 _0380_
*427 _0381_
*428 _0382_
*429 _0383_
*430 _0384_
*431 _0385_
*432 _0386_
*433 _0387_
*434 _0388_
*435 _0389_
*436 _0390_
*437 _0391_
*438 _0392_
*439 _0393_
*440 _0394_
*441 _0395_
*442 _0396_
*443 _0397_
*444 _0398_
*445 _0399_
*446 _0400_
*447 _0401_
*448 _0402_
*449 _0403_
*450 _0404_
*451 _0405_
*452 _0406_
*453 _0407_
*454 _0408_
*455 _0409_
*456 _0410_
*457 _0411_
*458 _0412_
*459 _0413_
*460 _0414_
*461 _0415_
*462 _0416_
*463 _0417_
*464 _0418_
*465 _0419_
*466 _0420_
*467 _0421_
*468 _0422_
*469 _0423_
*470 _0424_
*471 _0425_
*472 _0426_
*473 _0427_
*474 _0428_
*475 _0429_
*476 _0430_
*477 _0431_
*478 _0432_
*479 _0433_
*480 _0434_
*481 _0435_
*482 _0436_
*483 _0437_
*484 _0438_
*485 _0439_
*486 _0440_
*487 _0441_
*488 _0442_
*489 _0443_
*490 _0444_
*491 _0445_
*492 _0446_
*493 _0447_
*494 _0448_
*495 _0449_
*496 _0450_
*497 _0451_
*498 _0452_
*499 _0453_
*500 _0454_
*501 _0455_
*502 _0456_
*503 _0457_
*504 _0458_
*505 _0459_
*506 _0460_
*507 _0461_
*508 _0462_
*509 _0463_
*510 _0464_
*511 _0465_
*512 _0466_
*513 _0467_
*514 _0468_
*515 _0469_
*516 _0470_
*517 _0471_
*518 _0472_
*519 _0473_
*520 _0474_
*521 _0475_
*522 _0476_
*523 _0477_
*524 _0478_
*525 _0479_
*526 _0480_
*527 _0481_
*528 _0482_
*529 _0483_
*530 _0484_
*531 _0485_
*532 _0486_
*533 _0487_
*534 _0488_
*535 _0489_
*536 _0490_
*537 _0491_
*538 _0492_
*539 _0493_
*540 _0494_
*541 _0495_
*542 _0496_
*543 _0497_
*544 _0498_
*545 _0499_
*546 _0500_
*547 _0501_
*548 _0502_
*549 _0503_
*550 _0504_
*551 _0505_
*552 _0506_
*553 _0507_
*554 _0508_
*555 _0509_
*556 _0510_
*557 _0511_
*558 _0512_
*559 _0513_
*560 _0514_
*561 _0515_
*562 _0516_
*563 _0517_
*564 _0518_
*565 _0519_
*566 _0520_
*567 _0521_
*568 _0522_
*569 _0523_
*570 _0524_
*571 _0525_
*572 _0526_
*573 _0527_
*574 _0528_
*575 _0529_
*576 _0530_
*577 _0531_
*578 _0532_
*579 _0533_
*580 _0534_
*581 _0535_
*582 _0536_
*583 _0537_
*584 _0538_
*585 _0539_
*586 _0540_
*587 _0541_
*588 _0542_
*589 _0543_
*590 _0544_
*591 _0545_
*592 _0546_
*593 _0547_
*594 _0548_
*595 _0549_
*596 _0550_
*597 _0551_
*598 _0552_
*599 _0553_
*600 _0554_
*601 _0555_
*602 _0556_
*603 _0557_
*604 _0558_
*605 _0559_
*606 _0560_
*607 _0561_
*608 _0562_
*609 _0563_
*610 _0564_
*611 _0565_
*612 _0566_
*613 _0567_
*614 _0568_
*615 _0569_
*616 _0570_
*617 _0571_
*618 _0572_
*619 _0573_
*620 _0574_
*621 _0575_
*622 _0576_
*623 _0577_
*624 _0578_
*625 _0579_
*626 _0580_
*627 _0581_
*628 _0582_
*629 _0583_
*630 _0584_
*631 _0585_
*632 _0586_
*633 _0587_
*634 _0588_
*635 _0589_
*636 _0590_
*637 _0591_
*638 _0592_
*639 _0593_
*640 _0594_
*641 _0595_
*642 _0596_
*643 _0597_
*644 _0598_
*645 _0599_
*646 _0600_
*647 _0601_
*648 _0602_
*649 _0603_
*650 _0604_
*651 _0605_
*652 _0606_
*653 _0607_
*654 _0608_
*655 _0609_
*656 _0610_
*657 _0611_
*658 _0612_
*659 _0613_
*660 _0614_
*661 _0615_
*662 _0616_
*663 _0617_
*664 _0618_
*665 _0619_
*666 _0620_
*667 _0621_
*668 _0622_
*669 _0623_
*670 _0624_
*671 _0625_
*672 _0626_
*673 _0627_
*674 _0628_
*675 _0629_
*676 _0630_
*677 _0631_
*678 _0632_
*679 _0633_
*680 _0634_
*681 _0635_
*682 _0636_
*683 _0637_
*684 _0638_
*685 _0639_
*686 _0640_
*687 _0641_
*688 _0642_
*689 _0643_
*690 _0644_
*691 _0645_
*692 _0646_
*693 _0647_
*694 _0648_
*695 _0649_
*696 _0650_
*697 _0651_
*698 _0652_
*699 _0653_
*700 _0654_
*701 _0655_
*702 _0656_
*703 _0657_
*704 _0658_
*705 _0659_
*706 _0660_
*707 _0661_
*708 _0662_
*709 _0663_
*710 _0664_
*711 _0665_
*712 _0666_
*713 _0667_
*714 _0668_
*715 _0669_
*716 _0670_
*717 _0671_
*718 _0672_
*719 _0673_
*720 _0674_
*721 _0675_
*722 _0676_
*723 _0677_
*724 _0678_
*725 _0679_
*726 _0680_
*727 _0681_
*728 _0682_
*729 _0683_
*730 _0684_
*731 _0685_
*732 _0686_
*733 _0687_
*734 _0688_
*735 _0689_
*736 _0690_
*737 _0691_
*738 _0692_
*739 _0693_
*740 _0694_
*741 _0695_
*742 _0696_
*743 _0697_
*744 _0698_
*745 _0699_
*746 _0700_
*747 _0701_
*748 _0702_
*749 _0703_
*750 _0704_
*751 _0705_
*752 _0706_
*753 _0707_
*754 _0708_
*755 _0709_
*756 _0710_
*757 _0711_
*758 _0712_
*759 _0713_
*760 _0714_
*761 _0715_
*762 _0716_
*763 _0717_
*764 _0718_
*765 _0719_
*766 _0720_
*767 _0721_
*768 _0722_
*769 _0723_
*770 _0724_
*771 _0725_
*772 _0726_
*773 _0727_
*774 _0728_
*775 _0729_
*776 _0730_
*777 clknet_0_clk
*778 clknet_4_0_0_clk
*779 clknet_4_10_0_clk
*780 clknet_4_11_0_clk
*781 clknet_4_12_0_clk
*782 clknet_4_13_0_clk
*783 clknet_4_14_0_clk
*784 clknet_4_15_0_clk
*785 clknet_4_1_0_clk
*786 clknet_4_2_0_clk
*787 clknet_4_3_0_clk
*788 clknet_4_4_0_clk
*789 clknet_4_5_0_clk
*790 clknet_4_6_0_clk
*791 clknet_4_7_0_clk
*792 clknet_4_8_0_clk
*793 clknet_4_9_0_clk
*794 net1
*795 net10
*796 net11
*797 net12
*798 net13
*799 net14
*800 net15
*801 net2
*802 net29
*803 net3
*804 net30
*805 net31
*806 net32
*807 net33
*808 net34
*809 net35
*810 net36
*811 net37
*812 net38
*813 net39
*814 net4
*815 net40
*816 net41
*817 net42
*818 net43
*819 net44
*820 net45
*821 net46
*822 net47
*823 net48
*824 net49
*825 net5
*826 net50
*827 net51
*828 net52
*829 net53
*830 net54
*831 net55
*832 net56
*833 net57
*834 net58
*835 net59
*836 net6
*837 net60
*838 net61
*839 net62
*840 net63
*841 net64
*842 net65
*843 net66
*844 net67
*845 net68
*846 net69
*847 net7
*848 net70
*849 net71
*850 net72
*851 net73
*852 net74
*853 net75
*854 net76
*855 net77
*856 net78
*857 net79
*858 net8
*859 net80
*860 net81
*861 net82
*862 net83
*863 net84
*864 net85
*865 net86
*866 net87
*867 net88
*868 net89
*869 net9
*870 net90
*871 net91
*872 net92
*873 net93
*874 net94
*875 net95
*876 net96
*877 net97
*878 net98
*879 net99
*880 spi_master_only_tx_single_cs_inst\.cs
*881 spi_master_only_tx_single_cs_inst\.cs_inactive_counter
*882 spi_master_only_tx_single_cs_inst\.data_in_valid_strobe_i
*883 spi_master_only_tx_single_cs_inst\.spi_clk_o
*884 spi_master_only_tx_single_cs_inst\.spi_master_only_tx_inst\.data_in_valid_strobe
*885 spi_master_only_tx_single_cs_inst\.spi_master_only_tx_inst\.next_spi_clk_additional
*886 spi_master_only_tx_single_cs_inst\.spi_master_only_tx_inst\.spi_clk_counter\[0\]
*887 spi_master_only_tx_single_cs_inst\.spi_master_only_tx_inst\.spi_clk_counter\[1\]
*888 spi_master_only_tx_single_cs_inst\.spi_master_only_tx_inst\.spi_clk_edges\[0\]
*889 spi_master_only_tx_single_cs_inst\.spi_master_only_tx_inst\.spi_clk_edges\[1\]
*890 spi_master_only_tx_single_cs_inst\.spi_master_only_tx_inst\.spi_clk_edges\[2\]
*891 spi_master_only_tx_single_cs_inst\.spi_master_only_tx_inst\.spi_clk_edges\[3\]
*892 spi_master_only_tx_single_cs_inst\.spi_master_only_tx_inst\.spi_clk_edges\[4\]
*893 spi_master_only_tx_single_cs_inst\.spi_master_only_tx_inst\.spi_mosi
*894 spi_master_only_tx_single_cs_inst\.spi_master_only_tx_inst\.trailing_edge
*895 spi_master_only_tx_single_cs_inst\.spi_master_only_tx_inst\.tx_bit_counter\[0\]
*896 spi_master_only_tx_single_cs_inst\.spi_master_only_tx_inst\.tx_bit_counter\[1\]
*897 spi_master_only_tx_single_cs_inst\.spi_master_only_tx_inst\.tx_bit_counter\[2\]
*898 spi_master_only_tx_single_cs_inst\.spi_master_only_tx_inst\.tx_ready
*899 spi_master_only_tx_single_cs_inst\.state\[0\]
*900 spi_master_only_tx_single_cs_inst\.state\[1\]
*901 spi_master_only_tx_single_cs_inst\.state\[2\]
*902 wave_generator_inst\.amplitude\[0\]
*903 wave_generator_inst\.amplitude\[1\]
*904 wave_generator_inst\.amplitude\[2\]
*905 wave_generator_inst\.amplitude\[3\]
*906 wave_generator_inst\.amplitude\[4\]
*907 wave_generator_inst\.amplitude\[5\]
*908 wave_generator_inst\.amplitude\[6\]
*909 wave_generator_inst\.amplitude\[7\]
*910 wave_generator_inst\.data_sawtooth\[0\]
*911 wave_generator_inst\.data_sawtooth\[1\]
*912 wave_generator_inst\.data_sawtooth\[2\]
*913 wave_generator_inst\.data_sawtooth\[3\]
*914 wave_generator_inst\.data_sawtooth\[4\]
*915 wave_generator_inst\.data_sawtooth\[5\]
*916 wave_generator_inst\.data_sawtooth\[6\]
*917 wave_generator_inst\.data_sawtooth\[7\]
*918 wave_generator_inst\.data_sawtooth_out_valid_strobe
*919 wave_generator_inst\.data_sin\[0\]
*920 wave_generator_inst\.data_sin\[1\]
*921 wave_generator_inst\.data_sin\[2\]
*922 wave_generator_inst\.data_sin\[3\]
*923 wave_generator_inst\.data_sin\[4\]
*924 wave_generator_inst\.data_sin\[5\]
*925 wave_generator_inst\.data_sin\[6\]
*926 wave_generator_inst\.data_sin\[7\]
*927 wave_generator_inst\.data_sin_out_valid_strobe
*928 wave_generator_inst\.data_square_puls\[0\]
*929 wave_generator_inst\.data_square_puls\[1\]
*930 wave_generator_inst\.data_square_puls\[7\]
*931 wave_generator_inst\.data_square_puls_out_valid_strobe
*932 wave_generator_inst\.data_triangle\[0\]
*933 wave_generator_inst\.data_triangle\[1\]
*934 wave_generator_inst\.data_triangle\[2\]
*935 wave_generator_inst\.data_triangle\[3\]
*936 wave_generator_inst\.data_triangle\[4\]
*937 wave_generator_inst\.data_triangle\[5\]
*938 wave_generator_inst\.data_triangle\[6\]
*939 wave_generator_inst\.data_triangle\[7\]
*940 wave_generator_inst\.data_triangle_out_valid_strobe
*941 wave_generator_inst\.phase\[0\]
*942 wave_generator_inst\.phase\[1\]
*943 wave_generator_inst\.phase\[2\]
*944 wave_generator_inst\.phase\[3\]
*945 wave_generator_inst\.phase\[4\]
*946 wave_generator_inst\.phase\[5\]
*947 wave_generator_inst\.phase\[6\]
*948 wave_generator_inst\.phase\[7\]
*949 wave_generator_inst\.sin_generator_inst\.cordic_convergence_inst\.next_z\[0\]
*950 wave_generator_inst\.sin_generator_inst\.cordic_convergence_inst\.next_z\[1\]
*951 wave_generator_inst\.sin_generator_inst\.cordic_convergence_inst\.next_z\[2\]
*952 wave_generator_inst\.sin_generator_inst\.cordic_convergence_inst\.next_z\[3\]
*953 wave_generator_inst\.sin_generator_inst\.cordic_convergence_inst\.next_z\[4\]
*954 wave_generator_inst\.sin_generator_inst\.cordic_convergence_inst\.next_z\[5\]
*955 wave_generator_inst\.sin_generator_inst\.cordic_convergence_inst\.x_o\[0\]
*956 wave_generator_inst\.sin_generator_inst\.cordic_convergence_inst\.x_o\[1\]
*957 wave_generator_inst\.sin_generator_inst\.cordic_convergence_inst\.x_o\[2\]
*958 wave_generator_inst\.sin_generator_inst\.cordic_convergence_inst\.x_o\[3\]
*959 wave_generator_inst\.sin_generator_inst\.cordic_convergence_inst\.x_o\[4\]
*960 wave_generator_inst\.sin_generator_inst\.cordic_convergence_inst\.x_o\[5\]
*961 wave_generator_inst\.sin_generator_inst\.cordic_convergence_inst\.x_o\[6\]
*962 wave_generator_inst\.sin_generator_inst\.cordic_convergence_inst\.x_o\[7\]
*963 wave_generator_inst\.sin_generator_inst\.cordic_convergence_inst\.y_o\[0\]
*964 wave_generator_inst\.sin_generator_inst\.cordic_convergence_inst\.y_o\[1\]
*965 wave_generator_inst\.sin_generator_inst\.cordic_convergence_inst\.y_o\[2\]
*966 wave_generator_inst\.sin_generator_inst\.cordic_convergence_inst\.y_o\[3\]
*967 wave_generator_inst\.sin_generator_inst\.cordic_convergence_inst\.y_o\[4\]
*968 wave_generator_inst\.sin_generator_inst\.cordic_convergence_inst\.y_o\[5\]
*969 wave_generator_inst\.sin_generator_inst\.cordic_convergence_inst\.y_o\[6\]
*970 wave_generator_inst\.sin_generator_inst\.cordic_convergence_inst\.y_o\[7\]
*971 wave_generator_inst\.sin_generator_inst\.cordic_convergence_inst\.z_i\[6\]
*972 wave_generator_inst\.sin_generator_inst\.cordic_convergence_inst\.z_i\[7\]
*973 wave_generator_inst\.sin_generator_inst\.cordic_convergence_inst\.z_o\[0\]
*974 wave_generator_inst\.sin_generator_inst\.cordic_convergence_inst\.z_o\[1\]
*975 wave_generator_inst\.sin_generator_inst\.cordic_convergence_inst\.z_o\[2\]
*976 wave_generator_inst\.sin_generator_inst\.cordic_convergence_inst\.z_o\[3\]
*977 wave_generator_inst\.sin_generator_inst\.cordic_convergence_inst\.z_o\[4\]
*978 wave_generator_inst\.sin_generator_inst\.cordic_convergence_inst\.z_o\[5\]
*979 wave_generator_inst\.sin_generator_inst\.cordic_convergence_inst\.z_o\[6\]
*980 wave_generator_inst\.sin_generator_inst\.cordic_convergence_inst\.z_o\[7\]
*981 wave_generator_inst\.sin_generator_inst\.cordic_iterative_inst\.cordic_slice_inst\.x_o\[0\]
*982 wave_generator_inst\.sin_generator_inst\.cordic_iterative_inst\.cordic_slice_inst\.x_o\[1\]
*983 wave_generator_inst\.sin_generator_inst\.cordic_iterative_inst\.cordic_slice_inst\.x_o\[2\]
*984 wave_generator_inst\.sin_generator_inst\.cordic_iterative_inst\.cordic_slice_inst\.x_o\[3\]
*985 wave_generator_inst\.sin_generator_inst\.cordic_iterative_inst\.cordic_slice_inst\.x_o\[4\]
*986 wave_generator_inst\.sin_generator_inst\.cordic_iterative_inst\.cordic_slice_inst\.x_o\[5\]
*987 wave_generator_inst\.sin_generator_inst\.cordic_iterative_inst\.cordic_slice_inst\.x_o\[6\]
*988 wave_generator_inst\.sin_generator_inst\.cordic_iterative_inst\.cordic_slice_inst\.x_o\[7\]
*989 wave_generator_inst\.sin_generator_inst\.cordic_iterative_inst\.cordic_slice_inst\.z_o\[0\]
*990 wave_generator_inst\.sin_generator_inst\.cordic_iterative_inst\.cordic_slice_inst\.z_o\[1\]
*991 wave_generator_inst\.sin_generator_inst\.cordic_iterative_inst\.cordic_slice_inst\.z_o\[2\]
*992 wave_generator_inst\.sin_generator_inst\.cordic_iterative_inst\.cordic_slice_inst\.z_o\[3\]
*993 wave_generator_inst\.sin_generator_inst\.cordic_iterative_inst\.cordic_slice_inst\.z_o\[4\]
*994 wave_generator_inst\.sin_generator_inst\.cordic_iterative_inst\.cordic_slice_inst\.z_o\[5\]
*995 wave_generator_inst\.sin_generator_inst\.cordic_iterative_inst\.cordic_slice_inst\.z_o\[6\]
*996 wave_generator_inst\.sin_generator_inst\.cordic_iterative_inst\.cordic_slice_inst\.z_o\[7\]
*997 wave_generator_inst\.sin_generator_inst\.cordic_iterative_inst\.counter_value\[0\]
*998 wave_generator_inst\.sin_generator_inst\.cordic_iterative_inst\.counter_value\[1\]
*999 wave_generator_inst\.sin_generator_inst\.cordic_iterative_inst\.counter_value\[2\]
*1000 wave_generator_inst\.sin_generator_inst\.cordic_iterative_inst\.input_select
*1001 wave_generator_inst\.sin_generator_inst\.cordic_iterative_inst\.next_input_select
*1002 wave_generator_inst\.sin_generator_inst\.cordic_iterative_inst\.state\[0\]
*1003 wave_generator_inst\.sin_generator_inst\.cordic_iterative_inst\.state\[1\]
*1004 wave_generator_inst\.sin_generator_inst\.get_next_data_strobe_i
*1005 wave_generator_inst\.strobe_generator_inst\.counter\[0\]
*1006 wave_generator_inst\.strobe_generator_inst\.counter\[1\]
*1007 wave_generator_inst\.strobe_generator_inst\.counter\[2\]
*1008 wave_generator_inst\.strobe_generator_inst\.counter\[3\]
*1009 wave_generator_inst\.strobe_generator_inst\.counter\[4\]
*1010 wave_generator_inst\.strobe_generator_inst\.counter\[5\]
*1011 wave_generator_inst\.strobe_generator_inst\.counter\[6\]
*1012 wave_generator_inst\.top_triangle_generator_inst\.triangle_generator_inst\.counter
*1013 wave_generator_inst\.top_triangle_generator_inst\.triangle_generator_inst\.next_data_out_valid_strobe
*1014 wave_generator_inst\.top_triangle_generator_inst\.triangle_generator_inst\.old_signed_bit
*1015 wave_generator_inst\.top_triangle_generator_inst\.triangle_generator_inst\.reverse
*1016 FILLER_0_0_101
*1017 FILLER_0_0_109
*1018 FILLER_0_0_113
*1019 FILLER_0_0_121
*1020 FILLER_0_0_126
*1021 FILLER_0_0_138
*1022 FILLER_0_0_141
*1023 FILLER_0_0_15
*1024 FILLER_0_0_153
*1025 FILLER_0_0_165
*1026 FILLER_0_0_169
*1027 FILLER_0_0_181
*1028 FILLER_0_0_193
*1029 FILLER_0_0_197
*1030 FILLER_0_0_222
*1031 FILLER_0_0_225
*1032 FILLER_0_0_237
*1033 FILLER_0_0_249
*1034 FILLER_0_0_259
*1035 FILLER_0_0_27
*1036 FILLER_0_0_271
*1037 FILLER_0_0_279
*1038 FILLER_0_0_281
*1039 FILLER_0_0_29
*1040 FILLER_0_0_293
*1041 FILLER_0_0_3
*1042 FILLER_0_0_305
*1043 FILLER_0_0_309
*1044 FILLER_0_0_321
*1045 FILLER_0_0_333
*1046 FILLER_0_0_41
*1047 FILLER_0_0_53
*1048 FILLER_0_0_57
*1049 FILLER_0_0_69
*1050 FILLER_0_0_77
*1051 FILLER_0_0_89
*1052 FILLER_0_10_105
*1053 FILLER_0_10_109
*1054 FILLER_0_10_11
*1055 FILLER_0_10_124
*1056 FILLER_0_10_136
*1057 FILLER_0_10_141
*1058 FILLER_0_10_149
*1059 FILLER_0_10_161
*1060 FILLER_0_10_173
*1061 FILLER_0_10_181
*1062 FILLER_0_10_225
*1063 FILLER_0_10_253
*1064 FILLER_0_10_265
*1065 FILLER_0_10_29
*1066 FILLER_0_10_294
*1067 FILLER_0_10_3
*1068 FILLER_0_10_305
*1069 FILLER_0_10_309
*1070 FILLER_0_10_318
*1071 FILLER_0_10_330
*1072 FILLER_0_10_334
*1073 FILLER_0_10_47
*1074 FILLER_0_10_59
*1075 FILLER_0_10_71
*1076 FILLER_0_10_83
*1077 FILLER_0_10_93
*1078 FILLER_0_11_107
*1079 FILLER_0_11_111
*1080 FILLER_0_11_113
*1081 FILLER_0_11_130
*1082 FILLER_0_11_142
*1083 FILLER_0_11_15
*1084 FILLER_0_11_166
*1085 FILLER_0_11_169
*1086 FILLER_0_11_175
*1087 FILLER_0_11_182
*1088 FILLER_0_11_208
*1089 FILLER_0_11_220
*1090 FILLER_0_11_225
*1091 FILLER_0_11_254
*1092 FILLER_0_11_262
*1093 FILLER_0_11_281
*1094 FILLER_0_11_3
*1095 FILLER_0_11_304
*1096 FILLER_0_11_310
*1097 FILLER_0_11_32
*1098 FILLER_0_11_327
*1099 FILLER_0_11_53
*1100 FILLER_0_11_57
*1101 FILLER_0_11_74
*1102 FILLER_0_11_78
*1103 FILLER_0_11_88
*1104 FILLER_0_12_11
*1105 FILLER_0_12_124
*1106 FILLER_0_12_136
*1107 FILLER_0_12_141
*1108 FILLER_0_12_149
*1109 FILLER_0_12_182
*1110 FILLER_0_12_190
*1111 FILLER_0_12_213
*1112 FILLER_0_12_221
*1113 FILLER_0_12_26
*1114 FILLER_0_12_285
*1115 FILLER_0_12_3
*1116 FILLER_0_12_33
*1117 FILLER_0_12_334
*1118 FILLER_0_12_45
*1119 FILLER_0_12_49
*1120 FILLER_0_12_54
*1121 FILLER_0_12_62
*1122 FILLER_0_12_74
*1123 FILLER_0_12_82
*1124 FILLER_0_12_99
*1125 FILLER_0_13_105
*1126 FILLER_0_13_111
*1127 FILLER_0_13_113
*1128 FILLER_0_13_138
*1129 FILLER_0_13_15
*1130 FILLER_0_13_150
*1131 FILLER_0_13_161
*1132 FILLER_0_13_167
*1133 FILLER_0_13_169
*1134 FILLER_0_13_177
*1135 FILLER_0_13_196
*1136 FILLER_0_13_215
*1137 FILLER_0_13_223
*1138 FILLER_0_13_225
*1139 FILLER_0_13_24
*1140 FILLER_0_13_254
*1141 FILLER_0_13_266
*1142 FILLER_0_13_278
*1143 FILLER_0_13_281
*1144 FILLER_0_13_287
*1145 FILLER_0_13_299
*1146 FILLER_0_13_3
*1147 FILLER_0_13_321
*1148 FILLER_0_13_332
*1149 FILLER_0_13_36
*1150 FILLER_0_13_44
*1151 FILLER_0_13_54
*1152 FILLER_0_13_57
*1153 FILLER_0_13_69
*1154 FILLER_0_13_81
*1155 FILLER_0_13_93
*1156 FILLER_0_14_110
*1157 FILLER_0_14_15
*1158 FILLER_0_14_169
*1159 FILLER_0_14_181
*1160 FILLER_0_14_188
*1161 FILLER_0_14_206
*1162 FILLER_0_14_218
*1163 FILLER_0_14_250
*1164 FILLER_0_14_253
*1165 FILLER_0_14_26
*1166 FILLER_0_14_265
*1167 FILLER_0_14_277
*1168 FILLER_0_14_289
*1169 FILLER_0_14_3
*1170 FILLER_0_14_301
*1171 FILLER_0_14_307
*1172 FILLER_0_14_309
*1173 FILLER_0_14_327
*1174 FILLER_0_14_36
*1175 FILLER_0_14_48
*1176 FILLER_0_14_52
*1177 FILLER_0_14_67
*1178 FILLER_0_14_79
*1179 FILLER_0_14_83
*1180 FILLER_0_14_93
*1181 FILLER_0_14_98
*1182 FILLER_0_15_109
*1183 FILLER_0_15_11
*1184 FILLER_0_15_113
*1185 FILLER_0_15_125
*1186 FILLER_0_15_130
*1187 FILLER_0_15_142
*1188 FILLER_0_15_161
*1189 FILLER_0_15_174
*1190 FILLER_0_15_179
*1191 FILLER_0_15_191
*1192 FILLER_0_15_209
*1193 FILLER_0_15_221
*1194 FILLER_0_15_225
*1195 FILLER_0_15_236
*1196 FILLER_0_15_248
*1197 FILLER_0_15_275
*1198 FILLER_0_15_279
*1199 FILLER_0_15_281
*1200 FILLER_0_15_293
*1201 FILLER_0_15_3
*1202 FILLER_0_15_316
*1203 FILLER_0_15_328
*1204 FILLER_0_15_334
*1205 FILLER_0_15_55
*1206 FILLER_0_15_60
*1207 FILLER_0_15_64
*1208 FILLER_0_15_72
*1209 FILLER_0_15_76
*1210 FILLER_0_15_96
*1211 FILLER_0_16_102
*1212 FILLER_0_16_110
*1213 FILLER_0_16_114
*1214 FILLER_0_16_131
*1215 FILLER_0_16_139
*1216 FILLER_0_16_141
*1217 FILLER_0_16_149
*1218 FILLER_0_16_15
*1219 FILLER_0_16_156
*1220 FILLER_0_16_170
*1221 FILLER_0_16_19
*1222 FILLER_0_16_194
*1223 FILLER_0_16_200
*1224 FILLER_0_16_212
*1225 FILLER_0_16_243
*1226 FILLER_0_16_251
*1227 FILLER_0_16_253
*1228 FILLER_0_16_275
*1229 FILLER_0_16_287
*1230 FILLER_0_16_3
*1231 FILLER_0_16_322
*1232 FILLER_0_16_33
*1233 FILLER_0_16_334
*1234 FILLER_0_16_47
*1235 FILLER_0_16_55
*1236 FILLER_0_16_67
*1237 FILLER_0_16_73
*1238 FILLER_0_16_82
*1239 FILLER_0_16_94
*1240 FILLER_0_17_109
*1241 FILLER_0_17_113
*1242 FILLER_0_17_118
*1243 FILLER_0_17_15
*1244 FILLER_0_17_155
*1245 FILLER_0_17_167
*1246 FILLER_0_17_174
*1247 FILLER_0_17_180
*1248 FILLER_0_17_184
*1249 FILLER_0_17_192
*1250 FILLER_0_17_206
*1251 FILLER_0_17_232
*1252 FILLER_0_17_243
*1253 FILLER_0_17_255
*1254 FILLER_0_17_278
*1255 FILLER_0_17_281
*1256 FILLER_0_17_289
*1257 FILLER_0_17_3
*1258 FILLER_0_17_329
*1259 FILLER_0_17_34
*1260 FILLER_0_17_42
*1261 FILLER_0_17_52
*1262 FILLER_0_17_57
*1263 FILLER_0_17_70
*1264 FILLER_0_17_76
*1265 FILLER_0_17_97
*1266 FILLER_0_18_108
*1267 FILLER_0_18_120
*1268 FILLER_0_18_138
*1269 FILLER_0_18_15
*1270 FILLER_0_18_150
*1271 FILLER_0_18_176
*1272 FILLER_0_18_209
*1273 FILLER_0_18_221
*1274 FILLER_0_18_231
*1275 FILLER_0_18_246
*1276 FILLER_0_18_253
*1277 FILLER_0_18_27
*1278 FILLER_0_18_274
*1279 FILLER_0_18_286
*1280 FILLER_0_18_29
*1281 FILLER_0_18_294
*1282 FILLER_0_18_3
*1283 FILLER_0_18_332
*1284 FILLER_0_18_41
*1285 FILLER_0_18_73
*1286 FILLER_0_18_81
*1287 FILLER_0_18_96
*1288 FILLER_0_19_113
*1289 FILLER_0_19_144
*1290 FILLER_0_19_15
*1291 FILLER_0_19_152
*1292 FILLER_0_19_162
*1293 FILLER_0_19_169
*1294 FILLER_0_19_181
*1295 FILLER_0_19_199
*1296 FILLER_0_19_209
*1297 FILLER_0_19_221
*1298 FILLER_0_19_225
*1299 FILLER_0_19_239
*1300 FILLER_0_19_251
*1301 FILLER_0_19_27
*1302 FILLER_0_19_281
*1303 FILLER_0_19_293
*1304 FILLER_0_19_3
*1305 FILLER_0_19_313
*1306 FILLER_0_19_320
*1307 FILLER_0_19_33
*1308 FILLER_0_19_332
*1309 FILLER_0_19_57
*1310 FILLER_0_19_84
*1311 FILLER_0_1_108
*1312 FILLER_0_1_113
*1313 FILLER_0_1_141
*1314 FILLER_0_1_15
*1315 FILLER_0_1_185
*1316 FILLER_0_1_197
*1317 FILLER_0_1_218
*1318 FILLER_0_1_225
*1319 FILLER_0_1_237
*1320 FILLER_0_1_245
*1321 FILLER_0_1_27
*1322 FILLER_0_1_274
*1323 FILLER_0_1_297
*1324 FILLER_0_1_3
*1325 FILLER_0_1_309
*1326 FILLER_0_1_321
*1327 FILLER_0_1_333
*1328 FILLER_0_1_39
*1329 FILLER_0_1_51
*1330 FILLER_0_1_55
*1331 FILLER_0_1_57
*1332 FILLER_0_1_69
*1333 FILLER_0_1_96
*1334 FILLER_0_20_115
*1335 FILLER_0_20_127
*1336 FILLER_0_20_131
*1337 FILLER_0_20_135
*1338 FILLER_0_20_139
*1339 FILLER_0_20_146
*1340 FILLER_0_20_15
*1341 FILLER_0_20_158
*1342 FILLER_0_20_195
*1343 FILLER_0_20_197
*1344 FILLER_0_20_209
*1345 FILLER_0_20_217
*1346 FILLER_0_20_245
*1347 FILLER_0_20_249
*1348 FILLER_0_20_253
*1349 FILLER_0_20_259
*1350 FILLER_0_20_268
*1351 FILLER_0_20_27
*1352 FILLER_0_20_280
*1353 FILLER_0_20_286
*1354 FILLER_0_20_29
*1355 FILLER_0_20_3
*1356 FILLER_0_20_309
*1357 FILLER_0_20_324
*1358 FILLER_0_20_328
*1359 FILLER_0_20_334
*1360 FILLER_0_20_37
*1361 FILLER_0_20_58
*1362 FILLER_0_20_70
*1363 FILLER_0_20_82
*1364 FILLER_0_20_85
*1365 FILLER_0_20_94
*1366 FILLER_0_21_105
*1367 FILLER_0_21_110
*1368 FILLER_0_21_138
*1369 FILLER_0_21_15
*1370 FILLER_0_21_150
*1371 FILLER_0_21_162
*1372 FILLER_0_21_169
*1373 FILLER_0_21_175
*1374 FILLER_0_21_181
*1375 FILLER_0_21_193
*1376 FILLER_0_21_205
*1377 FILLER_0_21_217
*1378 FILLER_0_21_223
*1379 FILLER_0_21_241
*1380 FILLER_0_21_253
*1381 FILLER_0_21_259
*1382 FILLER_0_21_27
*1383 FILLER_0_21_277
*1384 FILLER_0_21_290
*1385 FILLER_0_21_3
*1386 FILLER_0_21_333
*1387 FILLER_0_21_39
*1388 FILLER_0_21_51
*1389 FILLER_0_21_55
*1390 FILLER_0_21_57
*1391 FILLER_0_21_68
*1392 FILLER_0_21_80
*1393 FILLER_0_21_97
*1394 FILLER_0_22_102
*1395 FILLER_0_22_111
*1396 FILLER_0_22_126
*1397 FILLER_0_22_138
*1398 FILLER_0_22_141
*1399 FILLER_0_22_153
*1400 FILLER_0_22_160
*1401 FILLER_0_22_172
*1402 FILLER_0_22_180
*1403 FILLER_0_22_185
*1404 FILLER_0_22_193
*1405 FILLER_0_22_197
*1406 FILLER_0_22_209
*1407 FILLER_0_22_221
*1408 FILLER_0_22_233
*1409 FILLER_0_22_245
*1410 FILLER_0_22_251
*1411 FILLER_0_22_253
*1412 FILLER_0_22_26
*1413 FILLER_0_22_265
*1414 FILLER_0_22_277
*1415 FILLER_0_22_289
*1416 FILLER_0_22_29
*1417 FILLER_0_22_3
*1418 FILLER_0_22_300
*1419 FILLER_0_22_306
*1420 FILLER_0_22_325
*1421 FILLER_0_22_333
*1422 FILLER_0_22_41
*1423 FILLER_0_22_49
*1424 FILLER_0_22_77
*1425 FILLER_0_22_83
*1426 FILLER_0_22_85
*1427 FILLER_0_22_9
*1428 FILLER_0_22_93
*1429 FILLER_0_23_11
*1430 FILLER_0_23_129
*1431 FILLER_0_23_135
*1432 FILLER_0_23_140
*1433 FILLER_0_23_157
*1434 FILLER_0_23_175
*1435 FILLER_0_23_199
*1436 FILLER_0_23_211
*1437 FILLER_0_23_223
*1438 FILLER_0_23_225
*1439 FILLER_0_23_229
*1440 FILLER_0_23_252
*1441 FILLER_0_23_264
*1442 FILLER_0_23_274
*1443 FILLER_0_23_281
*1444 FILLER_0_23_293
*1445 FILLER_0_23_3
*1446 FILLER_0_23_322
*1447 FILLER_0_23_334
*1448 FILLER_0_23_37
*1449 FILLER_0_23_85
*1450 FILLER_0_23_93
*1451 FILLER_0_24_157
*1452 FILLER_0_24_195
*1453 FILLER_0_24_205
*1454 FILLER_0_24_209
*1455 FILLER_0_24_22
*1456 FILLER_0_24_232
*1457 FILLER_0_24_251
*1458 FILLER_0_24_284
*1459 FILLER_0_24_3
*1460 FILLER_0_24_306
*1461 FILLER_0_24_32
*1462 FILLER_0_24_323
*1463 FILLER_0_24_44
*1464 FILLER_0_24_48
*1465 FILLER_0_24_68
*1466 FILLER_0_24_85
*1467 FILLER_0_24_97
*1468 FILLER_0_25_108
*1469 FILLER_0_25_130
*1470 FILLER_0_25_142
*1471 FILLER_0_25_166
*1472 FILLER_0_25_169
*1473 FILLER_0_25_177