*SPEF "ieee 1481-1999"
*DESIGN "tt_um_entwurf_integrierter_schaltungen_hadner"
*DATE "11:11:11 Fri 11 11, 1111"
*VENDOR "OpenRCX"
*PROGRAM "Parallel Extraction"
*VERSION "1.0"
*DESIGN_FLOW "NAME_SCOPE LOCAL" "PIN_CAP NONE"
*DIVIDER /
*DELIMITER :
*BUS_DELIMITER []
*T_UNIT 1 NS
*C_UNIT 1 PF
*R_UNIT 1 OHM
*L_UNIT 1 HENRY

*NAME_MAP
*3 clk
*4 ena
*5 rst_n
*6 ui_in[0]
*7 ui_in[1]
*8 ui_in[2]
*9 ui_in[3]
*10 ui_in[4]
*11 ui_in[5]
*12 ui_in[6]
*13 ui_in[7]
*14 uio_in[0]
*15 uio_in[1]
*16 uio_in[2]
*17 uio_in[3]
*18 uio_in[4]
*19 uio_in[5]
*20 uio_in[6]
*21 uio_in[7]
*22 net10
*23 net11
*24 net12
*25 net13
*26 net14
*27 net15
*28 net16
*29 net17
*30 uio_out[0]
*31 uio_out[1]
*32 uio_out[2]
*33 uio_out[3]
*34 uio_out[4]
*35 uio_out[5]
*36 uio_out[6]
*37 uio_out[7]
*38 uo_out[0]
*39 uo_out[1]
*40 uo_out[2]
*41 uo_out[3]
*42 uo_out[4]
*43 uo_out[5]
*44 uo_out[6]
*45 uo_out[7]
*46 _0000_
*47 _0001_
*48 _0002_
*49 _0003_
*50 _0004_
*51 _0005_
*52 _0006_
*53 _0007_
*54 _0008_
*55 _0009_
*56 _0010_
*57 _0039_
*58 _0040_
*59 _0041_
*60 _0042_
*61 _0043_
*62 _0044_
*63 _0045_
*64 _0046_
*65 _0047_
*66 _0048_
*67 _0049_
*68 _0050_
*69 _0051_
*70 _0052_
*71 _0053_
*72 _0054_
*73 _0055_
*74 _0056_
*75 _0057_
*76 _0058_
*77 _0059_
*78 _0060_
*79 _0061_
*80 _0062_
*81 _0063_
*82 _0064_
*83 _0065_
*84 _0066_
*85 _0067_
*86 _0068_
*87 _0069_
*88 _0070_
*89 _0071_
*90 _0072_
*91 _0073_
*92 _0074_
*93 _0075_
*94 _0076_
*95 _0077_
*96 _0078_
*97 _0079_
*98 _0080_
*99 _0081_
*100 _0082_
*101 _0083_
*102 _0084_
*103 _0085_
*104 _0086_
*105 _0087_
*106 _0088_
*107 _0089_
*108 _0090_
*109 _0091_
*110 _0092_
*111 _0093_
*112 _0094_
*113 _0095_
*114 _0096_
*115 _0097_
*116 _0098_
*117 _0099_
*118 _0100_
*119 _0101_
*120 _0102_
*121 _0103_
*122 _0104_
*123 _0105_
*124 _0106_
*125 _0107_
*126 _0108_
*127 _0109_
*128 _0110_
*129 _0111_
*130 _0112_
*131 _0113_
*132 _0114_
*133 _0115_
*134 _0116_
*135 _0117_
*136 _0118_
*137 _0119_
*138 _0120_
*139 _0121_
*140 _0122_
*141 _0123_
*142 _0124_
*143 _0125_
*144 _0126_
*145 _0127_
*146 _0128_
*147 _0129_
*148 _0130_
*149 _0131_
*150 _0132_
*151 _0133_
*152 _0134_
*153 _0135_
*154 _0136_
*155 _0137_
*156 _0138_
*157 _0139_
*158 _0140_
*159 _0141_
*160 _0142_
*161 _0143_
*162 _0144_
*163 _0145_
*164 _0146_
*165 _0147_
*166 _0148_
*167 _0149_
*168 _0150_
*169 _0151_
*170 _0152_
*171 _0153_
*172 _0154_
*173 _0155_
*174 _0156_
*175 _0157_
*176 _0158_
*177 _0159_
*178 _0160_
*179 _0161_
*180 _0162_
*181 _0163_
*182 _0164_
*183 _0165_
*184 _0166_
*185 _0167_
*186 _0168_
*187 _0169_
*188 _0170_
*189 _0171_
*190 _0172_
*191 _0173_
*192 _0174_
*193 _0175_
*194 _0176_
*195 _0177_
*196 _0178_
*197 _0179_
*198 _0180_
*199 _0181_
*200 _0182_
*201 _0183_
*202 _0184_
*203 _0185_
*204 _0186_
*205 _0187_
*206 _0188_
*207 _0189_
*208 _0190_
*209 _0191_
*210 _0192_
*211 _0193_
*212 _0194_
*213 _0195_
*214 _0196_
*215 _0197_
*216 _0198_
*217 _0199_
*218 _0200_
*219 _0201_
*220 _0202_
*221 _0203_
*222 _0204_
*223 _0205_
*224 _0206_
*225 _0207_
*226 _0208_
*227 _0209_
*228 _0210_
*229 _0211_
*230 _0212_
*231 _0213_
*232 _0214_
*233 _0215_
*234 _0216_
*235 _0217_
*236 _0218_
*237 _0219_
*238 _0220_
*239 _0221_
*240 _0222_
*241 _0223_
*242 _0224_
*243 _0225_
*244 _0226_
*245 _0227_
*246 _0228_
*247 _0229_
*248 _0230_
*249 _0231_
*250 _0232_
*251 _0233_
*252 _0234_
*253 _0235_
*254 _0236_
*255 _0237_
*256 _0238_
*257 _0239_
*258 _0240_
*259 _0241_
*260 _0242_
*261 _0243_
*262 _0244_
*263 _0245_
*264 _0246_
*265 _0247_
*266 _0248_
*267 _0249_
*268 _0250_
*269 _0251_
*270 _0252_
*271 _0253_
*272 _0254_
*273 _0255_
*274 _0256_
*275 _0257_
*276 _0258_
*277 _0259_
*278 _0260_
*279 _0261_
*280 _0262_
*281 _0263_
*282 _0264_
*283 _0265_
*284 _0266_
*285 _0267_
*286 _0268_
*287 _0269_
*288 _0270_
*289 _0271_
*290 _0272_
*291 _0273_
*292 _0274_
*293 _0275_
*294 _0276_
*295 _0277_
*296 _0278_
*297 _0279_
*298 _0280_
*299 _0281_
*300 _0282_
*301 _0283_
*302 _0284_
*303 _0285_
*304 _0286_
*305 _0287_
*306 _0288_
*307 _0289_
*308 _0290_
*309 _0291_
*310 _0292_
*311 _0293_
*312 _0294_
*313 _0295_
*314 _0296_
*315 _0297_
*316 _0298_
*317 _0299_
*318 _0300_
*319 _0301_
*320 _0302_
*321 _0303_
*322 _0304_
*323 _0305_
*324 _0306_
*325 _0307_
*326 _0308_
*327 _0309_
*328 _0310_
*329 _0311_
*330 _0312_
*331 _0313_
*332 _0314_
*333 _0315_
*334 _0316_
*335 _0317_
*336 _0318_
*337 _0319_
*338 _0320_
*339 _0321_
*340 _0322_
*341 _0323_
*342 _0324_
*343 _0325_
*344 _0326_
*345 _0327_
*346 _0328_
*347 _0329_
*348 _0330_
*349 _0331_
*350 _0332_
*351 _0333_
*352 _0334_
*353 _0335_
*354 _0336_
*355 _0337_
*356 _0338_
*357 _0339_
*358 _0340_
*359 _0341_
*360 _0342_
*361 _0343_
*362 _0344_
*363 _0345_
*364 _0346_
*365 _0347_
*366 _0348_
*367 _0349_
*368 _0350_
*369 _0351_
*370 _0352_
*371 _0353_
*372 _0354_
*373 _0355_
*374 _0356_
*375 _0357_
*376 _0358_
*377 _0359_
*378 _0360_
*379 _0361_
*380 _0362_
*381 _0363_
*382 _0364_
*383 _0365_
*384 _0366_
*385 _0367_
*386 _0368_
*387 _0369_
*388 _0370_
*389 _0371_
*390 _0372_
*391 _0373_
*392 _0374_
*393 _0375_
*394 _0376_
*395 _0377_
*396 _0378_
*397 _0379_
*398 _0380_
*399 _0381_
*400 _0382_
*401 _0383_
*402 _0384_
*403 _0385_
*404 _0386_
*405 _0387_
*406 _0388_
*407 _0389_
*408 _0390_
*409 _0391_
*410 _0392_
*411 _0393_
*412 _0394_
*413 _0395_
*414 _0396_
*415 _0397_
*416 _0398_
*417 _0399_
*418 _0400_
*419 _0401_
*420 _0402_
*421 _0403_
*422 _0404_
*423 _0405_
*424 _0406_
*425 _0407_
*426 _0408_
*427 _0409_
*428 _0410_
*429 _0411_
*430 _0412_
*431 _0413_
*432 _0414_
*433 _0415_
*434 _0416_
*435 _0417_
*436 _0418_
*437 _0419_
*438 _0420_
*439 _0421_
*440 _0422_
*441 _0423_
*442 _0424_
*443 _0425_
*444 _0426_
*445 _0427_
*446 _0428_
*447 _0429_
*448 _0430_
*449 _0431_
*450 _0432_
*451 _0433_
*452 _0434_
*453 _0435_
*454 _0436_
*455 _0437_
*456 _0438_
*457 _0439_
*458 _0440_
*459 _0441_
*460 _0442_
*461 _0443_
*462 _0444_
*463 _0445_
*464 _0446_
*465 _0447_
*466 _0448_
*467 _0449_
*468 _0450_
*469 _0451_
*470 _0452_
*471 _0453_
*472 _0454_
*473 _0455_
*474 _0456_
*475 _0457_
*476 _0458_
*477 _0459_
*478 _0460_
*479 _0461_
*480 _0462_
*481 _0463_
*482 _0464_
*483 _0465_
*484 _0466_
*485 _0467_
*486 _0468_
*487 _0469_
*488 _0470_
*489 _0471_
*490 _0472_
*491 _0473_
*492 _0474_
*493 _0475_
*494 _0476_
*495 _0477_
*496 _0478_
*497 _0479_
*498 _0480_
*499 _0481_
*500 _0482_
*501 _0483_
*502 _0484_
*503 _0485_
*504 _0486_
*505 _0487_
*506 _0488_
*507 _0489_
*508 _0490_
*509 _0491_
*510 _0492_
*511 _0493_
*512 _0494_
*513 _0495_
*514 _0496_
*515 _0497_
*516 _0498_
*517 _0499_
*518 _0500_
*519 _0501_
*520 _0502_
*521 _0503_
*522 _0504_
*523 _0505_
*524 _0506_
*525 _0507_
*526 _0508_
*527 _0509_
*528 _0510_
*529 _0511_
*530 _0512_
*531 _0513_
*532 _0514_
*533 _0515_
*534 _0516_
*535 _0517_
*536 _0518_
*537 _0519_
*538 _0520_
*539 _0521_
*540 _0522_
*541 _0523_
*542 _0524_
*543 _0525_
*544 _0526_
*545 _0527_
*546 _0528_
*547 _0529_
*548 _0530_
*549 _0531_
*550 _0532_
*551 _0533_
*552 _0534_
*553 _0535_
*554 _0536_
*555 _0537_
*556 _0538_
*557 _0539_
*558 _0540_
*559 _0541_
*560 _0542_
*561 _0543_
*562 _0544_
*563 _0545_
*564 _0546_
*565 _0547_
*566 _0548_
*567 _0549_
*568 _0550_
*569 _0551_
*570 _0552_
*571 _0553_
*572 _0554_
*573 _0555_
*574 _0556_
*575 _0557_
*576 _0558_
*577 _0559_
*578 _0560_
*579 _0561_
*580 _0562_
*581 _0563_
*582 _0564_
*583 _0565_
*584 _0566_
*585 _0567_
*586 _0568_
*587 _0569_
*588 _0570_
*589 _0571_
*590 _0572_
*591 _0573_
*592 _0574_
*593 _0575_
*594 _0576_
*595 _0577_
*596 _0578_
*597 _0579_
*598 _0580_
*599 _0581_
*600 _0582_
*601 _0583_
*602 _0584_
*603 _0585_
*604 _0586_
*605 _0587_
*606 _0588_
*607 _0589_
*608 _0590_
*609 _0591_
*610 _0592_
*611 _0593_
*612 _0594_
*613 _0595_
*614 _0596_
*615 _0597_
*616 _0598_
*617 _0599_
*618 _0600_
*619 _0601_
*620 _0602_
*621 _0603_
*622 _0604_
*623 _0605_
*624 _0606_
*625 _0607_
*626 _0608_
*627 _0609_
*628 _0610_
*629 _0611_
*630 _0612_
*631 _0613_
*632 _0614_
*633 _0615_
*634 _0616_
*635 _0617_
*636 _0618_
*637 clknet_0__0346_
*638 clknet_0__0347_
*639 clknet_0__0575_
*640 clknet_0_clk
*641 clknet_1_0__leaf__0346_
*642 clknet_1_0__leaf__0347_
*643 clknet_1_0__leaf__0575_
*644 clknet_1_1__leaf__0346_
*645 clknet_1_1__leaf__0347_
*646 clknet_1_1__leaf__0575_
*647 clknet_4_0_0_clk
*648 clknet_4_10_0_clk
*649 clknet_4_11_0_clk
*650 clknet_4_12_0_clk
*651 clknet_4_13_0_clk
*652 clknet_4_14_0_clk
*653 clknet_4_15_0_clk
*654 clknet_4_1_0_clk
*655 clknet_4_2_0_clk
*656 clknet_4_3_0_clk
*657 clknet_4_4_0_clk
*658 clknet_4_5_0_clk
*659 clknet_4_6_0_clk
*660 clknet_4_7_0_clk
*661 clknet_4_8_0_clk
*662 clknet_4_9_0_clk
*663 net1
*664 net100
*665 net101
*666 net102
*667 net103
*668 net104
*669 net105
*670 net106
*671 net107
*672 net108
*673 net109
*674 net110
*675 net111
*676 net112
*677 net113
*678 net114
*679 net115
*680 net116
*681 net117
*682 net118
*683 net119
*684 net120
*685 net121
*686 net122
*687 net123
*688 net124
*689 net125
*690 net126
*691 net127
*692 net128
*693 net129
*694 net130
*695 net131
*696 net132
*697 net133
*698 net134
*699 net135
*700 net136
*701 net137
*702 net138
*703 net139
*704 net140
*705 net141
*706 net142
*707 net143
*708 net144
*709 net145
*710 net146
*711 net147
*712 net148
*713 net149
*714 net150
*715 net151
*716 net152
*717 net153
*718 net154
*719 net155
*720 net156
*721 net18
*722 net19
*723 net2
*724 net20
*725 net21
*726 net22
*727 net23
*728 net24
*729 net25
*730 net26
*731 net27
*732 net28
*733 net29
*734 net3
*735 net30
*736 net31
*737 net32
*738 net33
*739 net34
*740 net35
*741 net36
*742 net37
*743 net38
*744 net39
*745 net4
*746 net40
*747 net41
*748 net42
*749 net43
*750 net44
*751 net45
*752 net46
*753 net47
*754 net48
*755 net49
*756 net5
*757 net50
*758 net51
*759 net52
*760 net53
*761 net54
*762 net55
*763 net56
*764 net57
*765 net58
*766 net59
*767 net6
*768 net60
*769 net61
*770 net62
*771 net63
*772 net64
*773 net65
*774 net66
*775 net67
*776 net68
*777 net69
*778 net7
*779 net70
*780 net71
*781 net72
*782 net73
*783 net74
*784 net75
*785 net76
*786 net77
*787 net78
*788 net79
*789 net8
*790 net80
*791 net81
*792 net82
*793 net83
*794 net84
*795 net85
*796 net86
*797 net87
*798 net88
*799 net89
*800 net9
*801 net90
*802 net91
*803 net92
*804 net93
*805 net94
*806 net95
*807 net96
*808 net97
*809 net98
*810 net99
*811 ones_counter_1\.ones\[0\]
*812 ones_counter_1\.ones\[1\]
*813 ones_counter_1\.ones\[2\]
*814 ones_counter_1\.ones\[3\]
*815 pwm_analyzer_0\.counter_1\.counter_val\[0\]
*816 pwm_analyzer_0\.counter_1\.counter_val\[10\]
*817 pwm_analyzer_0\.counter_1\.counter_val\[1\]
*818 pwm_analyzer_0\.counter_1\.counter_val\[2\]
*819 pwm_analyzer_0\.counter_1\.counter_val\[3\]
*820 pwm_analyzer_0\.counter_1\.counter_val\[4\]
*821 pwm_analyzer_0\.counter_1\.counter_val\[5\]
*822 pwm_analyzer_0\.counter_1\.counter_val\[6\]
*823 pwm_analyzer_0\.counter_1\.counter_val\[7\]
*824 pwm_analyzer_0\.counter_1\.counter_val\[8\]
*825 pwm_analyzer_0\.counter_1\.counter_val\[9\]
*826 pwm_analyzer_0\.counter_1\.current_enable_state\[0\]
*827 pwm_analyzer_0\.counter_1\.finished
*828 pwm_analyzer_0\.output_pin
*829 pwm_analyzer_1\.counter_1\.counter_val\[0\]
*830 pwm_analyzer_1\.counter_1\.counter_val\[10\]
*831 pwm_analyzer_1\.counter_1\.counter_val\[1\]
*832 pwm_analyzer_1\.counter_1\.counter_val\[2\]
*833 pwm_analyzer_1\.counter_1\.counter_val\[3\]
*834 pwm_analyzer_1\.counter_1\.counter_val\[4\]
*835 pwm_analyzer_1\.counter_1\.counter_val\[5\]
*836 pwm_analyzer_1\.counter_1\.counter_val\[6\]
*837 pwm_analyzer_1\.counter_1\.counter_val\[7\]
*838 pwm_analyzer_1\.counter_1\.counter_val\[8\]
*839 pwm_analyzer_1\.counter_1\.counter_val\[9\]
*840 pwm_analyzer_1\.counter_1\.current_enable_state\[0\]
*841 pwm_analyzer_1\.counter_1\.finished
*842 pwm_analyzer_1\.output_pin
*843 pwm_analyzer_2\.counter_1\.counter_val\[0\]
*844 pwm_analyzer_2\.counter_1\.counter_val\[10\]
*845 pwm_analyzer_2\.counter_1\.counter_val\[1\]
*846 pwm_analyzer_2\.counter_1\.counter_val\[2\]
*847 pwm_analyzer_2\.counter_1\.counter_val\[3\]
*848 pwm_analyzer_2\.counter_1\.counter_val\[4\]
*849 pwm_analyzer_2\.counter_1\.counter_val\[5\]
*850 pwm_analyzer_2\.counter_1\.counter_val\[6\]
*851 pwm_analyzer_2\.counter_1\.counter_val\[7\]
*852 pwm_analyzer_2\.counter_1\.counter_val\[8\]
*853 pwm_analyzer_2\.counter_1\.counter_val\[9\]
*854 pwm_analyzer_2\.counter_1\.current_enable_state\[0\]
*855 pwm_analyzer_2\.counter_1\.finished
*856 pwm_analyzer_2\.output_pin
*857 pwm_analyzer_3\.counter_1\.counter_val\[0\]
*858 pwm_analyzer_3\.counter_1\.counter_val\[10\]
*859 pwm_analyzer_3\.counter_1\.counter_val\[1\]
*860 pwm_analyzer_3\.counter_1\.counter_val\[2\]
*861 pwm_analyzer_3\.counter_1\.counter_val\[3\]
*862 pwm_analyzer_3\.counter_1\.counter_val\[4\]
*863 pwm_analyzer_3\.counter_1\.counter_val\[5\]
*864 pwm_analyzer_3\.counter_1\.counter_val\[6\]
*865 pwm_analyzer_3\.counter_1\.counter_val\[7\]
*866 pwm_analyzer_3\.counter_1\.counter_val\[8\]
*867 pwm_analyzer_3\.counter_1\.counter_val\[9\]
*868 pwm_analyzer_3\.counter_1\.current_enable_state\[0\]
*869 pwm_analyzer_3\.counter_1\.finished
*870 pwm_analyzer_3\.output_pin
*871 pwm_analyzer_4\.counter_1\.counter_val\[0\]
*872 pwm_analyzer_4\.counter_1\.counter_val\[10\]
*873 pwm_analyzer_4\.counter_1\.counter_val\[1\]
*874 pwm_analyzer_4\.counter_1\.counter_val\[2\]
*875 pwm_analyzer_4\.counter_1\.counter_val\[3\]
*876 pwm_analyzer_4\.counter_1\.counter_val\[4\]
*877 pwm_analyzer_4\.counter_1\.counter_val\[5\]
*878 pwm_analyzer_4\.counter_1\.counter_val\[6\]
*879 pwm_analyzer_4\.counter_1\.counter_val\[7\]
*880 pwm_analyzer_4\.counter_1\.counter_val\[8\]
*881 pwm_analyzer_4\.counter_1\.counter_val\[9\]
*882 pwm_analyzer_4\.counter_1\.current_enable_state\[0\]
*883 pwm_analyzer_4\.counter_1\.finished
*884 pwm_analyzer_4\.output_pin
*885 pwm_analyzer_5\.counter_1\.counter_val\[0\]
*886 pwm_analyzer_5\.counter_1\.counter_val\[10\]
*887 pwm_analyzer_5\.counter_1\.counter_val\[1\]
*888 pwm_analyzer_5\.counter_1\.counter_val\[2\]
*889 pwm_analyzer_5\.counter_1\.counter_val\[3\]
*890 pwm_analyzer_5\.counter_1\.counter_val\[4\]
*891 pwm_analyzer_5\.counter_1\.counter_val\[5\]
*892 pwm_analyzer_5\.counter_1\.counter_val\[6\]
*893 pwm_analyzer_5\.counter_1\.counter_val\[7\]
*894 pwm_analyzer_5\.counter_1\.counter_val\[8\]
*895 pwm_analyzer_5\.counter_1\.counter_val\[9\]
*896 pwm_analyzer_5\.counter_1\.current_enable_state\[0\]
*897 pwm_analyzer_5\.counter_1\.finished
*898 pwm_analyzer_5\.output_pin
*899 pwm_analyzer_6\.counter_1\.counter_val\[0\]
*900 pwm_analyzer_6\.counter_1\.counter_val\[10\]
*901 pwm_analyzer_6\.counter_1\.counter_val\[1\]
*902 pwm_analyzer_6\.counter_1\.counter_val\[2\]
*903 pwm_analyzer_6\.counter_1\.counter_val\[3\]
*904 pwm_analyzer_6\.counter_1\.counter_val\[4\]
*905 pwm_analyzer_6\.counter_1\.counter_val\[5\]
*906 pwm_analyzer_6\.counter_1\.counter_val\[6\]
*907 pwm_analyzer_6\.counter_1\.counter_val\[7\]
*908 pwm_analyzer_6\.counter_1\.counter_val\[8\]
*909 pwm_analyzer_6\.counter_1\.counter_val\[9\]
*910 pwm_analyzer_6\.counter_1\.current_enable_state\[0\]
*911 pwm_analyzer_6\.counter_1\.finished
*912 pwm_analyzer_6\.output_pin
*913 pwm_analyzer_7\.counter_1\.counter_val\[0\]
*914 pwm_analyzer_7\.counter_1\.counter_val\[10\]
*915 pwm_analyzer_7\.counter_1\.counter_val\[1\]
*916 pwm_analyzer_7\.counter_1\.counter_val\[2\]
*917 pwm_analyzer_7\.counter_1\.counter_val\[3\]
*918 pwm_analyzer_7\.counter_1\.counter_val\[4\]
*919 pwm_analyzer_7\.counter_1\.counter_val\[5\]
*920 pwm_analyzer_7\.counter_1\.counter_val\[6\]
*921 pwm_analyzer_7\.counter_1\.counter_val\[7\]
*922 pwm_analyzer_7\.counter_1\.counter_val\[8\]
*923 pwm_analyzer_7\.counter_1\.counter_val\[9\]
*924 pwm_analyzer_7\.counter_1\.current_enable_state\[0\]
*925 pwm_analyzer_7\.counter_1\.finished
*926 pwm_analyzer_7\.output_pin
*927 uart_transmitter_1\.bit_counter\[0\]
*928 uart_transmitter_1\.bit_counter\[1\]
*929 uart_transmitter_1\.bit_counter\[2\]
*930 uart_transmitter_1\.cur_counter\[0\]
*931 uart_transmitter_1\.cur_counter\[1\]
*932 uart_transmitter_1\.cur_counter\[2\]
*933 uart_transmitter_1\.cur_counter\[3\]
*934 uart_transmitter_1\.old_counter\[0\]
*935 uart_transmitter_1\.old_counter\[1\]
*936 uart_transmitter_1\.old_counter\[2\]
*937 uart_transmitter_1\.old_counter\[3\]
*938 uart_transmitter_1\.shift_reg\[0\]
*939 uart_transmitter_1\.shift_reg\[1\]
*940 uart_transmitter_1\.shift_reg\[2\]
*941 uart_transmitter_1\.shift_reg\[3\]
*942 uart_transmitter_1\.state\[0\]
*943 uart_transmitter_1\.state\[1\]
*944 uart_transmitter_1\.state\[2\]
*945 uart_transmitter_1\.state\[3\]
*946 uart_transmitter_1\.uart_transmit_o
*947 FILLER_0_0_109
*948 FILLER_0_0_113
*949 FILLER_0_0_125
*950 FILLER_0_0_137
*951 FILLER_0_0_141
*952 FILLER_0_0_15
*953 FILLER_0_0_153
*954 FILLER_0_0_165
*955 FILLER_0_0_169
*956 FILLER_0_0_181
*957 FILLER_0_0_193
*958 FILLER_0_0_197
*959 FILLER_0_0_209
*960 FILLER_0_0_221
*961 FILLER_0_0_225
*962 FILLER_0_0_237
*963 FILLER_0_0_249
*964 FILLER_0_0_253
*965 FILLER_0_0_265
*966 FILLER_0_0_27
*967 FILLER_0_0_277
*968 FILLER_0_0_281
*969 FILLER_0_0_29
*970 FILLER_0_0_293
*971 FILLER_0_0_3
*972 FILLER_0_0_305
*973 FILLER_0_0_309
*974 FILLER_0_0_321
*975 FILLER_0_0_333
*976 FILLER_0_0_41
*977 FILLER_0_0_53
*978 FILLER_0_0_57
*979 FILLER_0_0_69
*980 FILLER_0_0_81
*981 FILLER_0_0_85
*982 FILLER_0_0_97
*983 FILLER_0_10_11
*984 FILLER_0_10_110
*985 FILLER_0_10_118
*986 FILLER_0_10_139
*987 FILLER_0_10_149
*988 FILLER_0_10_159
*989 FILLER_0_10_167
*990 FILLER_0_10_174
*991 FILLER_0_10_192
*992 FILLER_0_10_197
*993 FILLER_0_10_209
*994 FILLER_0_10_220
*995 FILLER_0_10_238
*996 FILLER_0_10_250
*997 FILLER_0_10_253
*998 FILLER_0_10_259
*999 FILLER_0_10_29
*1000 FILLER_0_10_293
*1001 FILLER_0_10_3
*1002 FILLER_0_10_333
*1003 FILLER_0_10_54
*1004 FILLER_0_10_66
*1005 FILLER_0_10_83
*1006 FILLER_0_10_98
*1007 FILLER_0_11_110
*1008 FILLER_0_11_113
*1009 FILLER_0_11_117
*1010 FILLER_0_11_15
*1011 FILLER_0_11_158
*1012 FILLER_0_11_162
*1013 FILLER_0_11_169
*1014 FILLER_0_11_186
*1015 FILLER_0_11_198
*1016 FILLER_0_11_206
*1017 FILLER_0_11_231
*1018 FILLER_0_11_243
*1019 FILLER_0_11_255
*1020 FILLER_0_11_267
*1021 FILLER_0_11_286
*1022 FILLER_0_11_298
*1023 FILLER_0_11_3
*1024 FILLER_0_11_331
*1025 FILLER_0_11_40
*1026 FILLER_0_11_54
*1027 FILLER_0_11_57
*1028 FILLER_0_11_69
*1029 FILLER_0_11_73
*1030 FILLER_0_11_98
*1031 FILLER_0_12_107
*1032 FILLER_0_12_119
*1033 FILLER_0_12_127
*1034 FILLER_0_12_139
*1035 FILLER_0_12_148
*1036 FILLER_0_12_15
*1037 FILLER_0_12_152
*1038 FILLER_0_12_164
*1039 FILLER_0_12_176
*1040 FILLER_0_12_191
*1041 FILLER_0_12_195
*1042 FILLER_0_12_200
*1043 FILLER_0_12_208
*1044 FILLER_0_12_241
*1045 FILLER_0_12_249
*1046 FILLER_0_12_253
*1047 FILLER_0_12_259
*1048 FILLER_0_12_264
*1049 FILLER_0_12_27
*1050 FILLER_0_12_29
*1051 FILLER_0_12_292
*1052 FILLER_0_12_3
*1053 FILLER_0_12_300
*1054 FILLER_0_12_305
*1055 FILLER_0_12_309
*1056 FILLER_0_12_321
*1057 FILLER_0_12_331
*1058 FILLER_0_12_76
*1059 FILLER_0_12_94
*1060 FILLER_0_13_109
*1061 FILLER_0_13_113
*1062 FILLER_0_13_125
*1063 FILLER_0_13_139
*1064 FILLER_0_13_147
*1065 FILLER_0_13_15
*1066 FILLER_0_13_164
*1067 FILLER_0_13_169
*1068 FILLER_0_13_177
*1069 FILLER_0_13_202
*1070 FILLER_0_13_225
*1071 FILLER_0_13_233
*1072 FILLER_0_13_251
*1073 FILLER_0_13_255
*1074 FILLER_0_13_27
*1075 FILLER_0_13_289
*1076 FILLER_0_13_297
*1077 FILLER_0_13_3
*1078 FILLER_0_13_327
*1079 FILLER_0_13_40
*1080 FILLER_0_13_57
*1081 FILLER_0_13_79
*1082 FILLER_0_14_110
*1083 FILLER_0_14_122
*1084 FILLER_0_14_134
*1085 FILLER_0_14_152
*1086 FILLER_0_14_164
*1087 FILLER_0_14_168
*1088 FILLER_0_14_17
*1089 FILLER_0_14_195
*1090 FILLER_0_14_197
*1091 FILLER_0_14_207
*1092 FILLER_0_14_21
*1093 FILLER_0_14_212
*1094 FILLER_0_14_219
*1095 FILLER_0_14_245
*1096 FILLER_0_14_251
*1097 FILLER_0_14_253
*1098 FILLER_0_14_265
*1099 FILLER_0_14_27
*1100 FILLER_0_14_29
*1101 FILLER_0_14_3
*1102 FILLER_0_14_300
*1103 FILLER_0_14_320
*1104 FILLER_0_14_330
*1105 FILLER_0_14_334
*1106 FILLER_0_14_34
*1107 FILLER_0_14_42
*1108 FILLER_0_14_54
*1109 FILLER_0_14_92
*1110 FILLER_0_15_110
*1111 FILLER_0_15_113
*1112 FILLER_0_15_161
*1113 FILLER_0_15_169
*1114 FILLER_0_15_207
*1115 FILLER_0_15_236
*1116 FILLER_0_15_248
*1117 FILLER_0_15_260
*1118 FILLER_0_15_295
*1119 FILLER_0_15_301
*1120 FILLER_0_15_310
*1121 FILLER_0_15_322
*1122 FILLER_0_15_334
*1123 FILLER_0_15_35
*1124 FILLER_0_15_39
*1125 FILLER_0_15_48
*1126 FILLER_0_15_57
*1127 FILLER_0_15_65
*1128 FILLER_0_15_98
*1129 FILLER_0_16_110
*1130 FILLER_0_16_131
*1131 FILLER_0_16_141
*1132 FILLER_0_16_160
*1133 FILLER_0_16_168
*1134 FILLER_0_16_194
*1135 FILLER_0_16_197
*1136 FILLER_0_16_205
*1137 FILLER_0_16_227
*1138 FILLER_0_16_247
*1139 FILLER_0_16_251
*1140 FILLER_0_16_253
*1141 FILLER_0_16_261
*1142 FILLER_0_16_297
*1143 FILLER_0_16_3
*1144 FILLER_0_16_307
*1145 FILLER_0_16_332
*1146 FILLER_0_16_53
*1147 FILLER_0_16_69
*1148 FILLER_0_16_82
*1149 FILLER_0_17_111
*1150 FILLER_0_17_113
*1151 FILLER_0_17_152
*1152 FILLER_0_17_164
*1153 FILLER_0_17_200
*1154 FILLER_0_17_208
*1155 FILLER_0_17_225
*1156 FILLER_0_17_263
*1157 FILLER_0_17_297
*1158 FILLER_0_17_3
*1159 FILLER_0_17_301
*1160 FILLER_0_17_318
*1161 FILLER_0_17_330
*1162 FILLER_0_17_334
*1163 FILLER_0_17_65
*1164 FILLER_0_17_80
*1165 FILLER_0_17_88
*1166 FILLER_0_18_104
*1167 FILLER_0_18_112
*1168 FILLER_0_18_127
*1169 FILLER_0_18_149
*1170 FILLER_0_18_15
*1171 FILLER_0_18_155
*1172 FILLER_0_18_163
*1173 FILLER_0_18_182
*1174 FILLER_0_18_195
*1175 FILLER_0_18_200
*1176 FILLER_0_18_216
*1177 FILLER_0_18_226
*1178 FILLER_0_18_230
*1179 FILLER_0_18_258
*1180 FILLER_0_18_264
*1181 FILLER_0_18_284
*1182 FILLER_0_18_296
*1183 FILLER_0_18_3
*1184 FILLER_0_18_309
*1185 FILLER_0_18_321
*1186 FILLER_0_18_333
*1187 FILLER_0_18_85
*1188 FILLER_0_18_93
*1189 FILLER_0_19_102
*1190 FILLER_0_19_110
*1191 FILLER_0_19_113
*1192 FILLER_0_19_125
*1193 FILLER_0_19_137
*1194 FILLER_0_19_145
*1195 FILLER_0_19_15
*1196 FILLER_0_19_150
*1197 FILLER_0_19_162
*1198 FILLER_0_19_169
*1199 FILLER_0_19_181
*1200 FILLER_0_19_213
*1201 FILLER_0_19_221
*1202 FILLER_0_19_225
*1203 FILLER_0_19_255
*1204 FILLER_0_19_267
*1205 FILLER_0_19_27
*1206 FILLER_0_19_279
*1207 FILLER_0_19_281
*1208 FILLER_0_19_293
*1209 FILLER_0_19_3
*1210 FILLER_0_19_305
*1211 FILLER_0_19_317
*1212 FILLER_0_19_329
*1213 FILLER_0_19_36
*1214 FILLER_0_19_55
*1215 FILLER_0_19_57
*1216 FILLER_0_19_65
*1217 FILLER_0_19_81
*1218 FILLER_0_19_90
*1219 FILLER_0_1_105
*1220 FILLER_0_1_111
*1221 FILLER_0_1_113
*1222 FILLER_0_1_125
*1223 FILLER_0_1_137
*1224 FILLER_0_1_149
*1225 FILLER_0_1_15
*1226 FILLER_0_1_161
*1227 FILLER_0_1_167
*1228 FILLER_0_1_169
*1229 FILLER_0_1_181
*1230 FILLER_0_1_193
*1231 FILLER_0_1_205
*1232 FILLER_0_1_217
*1233 FILLER_0_1_223
*1234 FILLER_0_1_225
*1235 FILLER_0_1_237
*1236 FILLER_0_1_249
*1237 FILLER_0_1_261
*1238 FILLER_0_1_27
*1239 FILLER_0_1_273
*1240 FILLER_0_1_279
*1241 FILLER_0_1_281
*1242 FILLER_0_1_293
*1243 FILLER_0_1_3
*1244 FILLER_0_1_305
*1245 FILLER_0_1_317
*1246 FILLER_0_1_329
*1247 FILLER_0_1_39
*1248 FILLER_0_1_51
*1249 FILLER_0_1_55
*1250 FILLER_0_1_57
*1251 FILLER_0_1_69
*1252 FILLER_0_1_81
*1253 FILLER_0_1_93
*1254 FILLER_0_20_104
*1255 FILLER_0_20_127
*1256 FILLER_0_20_131
*1257 FILLER_0_20_138
*1258 FILLER_0_20_145
*1259 FILLER_0_20_15
*1260 FILLER_0_20_168
*1261 FILLER_0_20_180
*1262 FILLER_0_20_192
*1263 FILLER_0_20_197
*1264 FILLER_0_20_209
*1265 FILLER_0_20_213
*1266 FILLER_0_20_225
*1267 FILLER_0_20_243
*1268 FILLER_0_20_251
*1269 FILLER_0_20_261
*1270 FILLER_0_20_280
*1271 FILLER_0_20_288
*1272 FILLER_0_20_3
*1273 FILLER_0_20_305
*1274 FILLER_0_20_328
*1275 FILLER_0_20_334
*1276 FILLER_0_20_37
*1277 FILLER_0_20_57
*1278 FILLER_0_20_61
*1279 FILLER_0_21_103
*1280 FILLER_0_21_111
*1281 FILLER_0_21_113
*1282 FILLER_0_21_124
*1283 FILLER_0_21_142
*1284 FILLER_0_21_172
*1285 FILLER_0_21_197
*1286 FILLER_0_21_205
*1287 FILLER_0_21_216
*1288 FILLER_0_21_241
*1289 FILLER_0_21_253
*1290 FILLER_0_21_257
*1291 FILLER_0_21_284
*1292 FILLER_0_21_3
*1293 FILLER_0_21_311
*1294 FILLER_0_21_331
*1295 FILLER_0_21_34
*1296 FILLER_0_21_54
*1297 FILLER_0_21_63
*1298 FILLER_0_22_109
*1299 FILLER_0_22_141
*1300 FILLER_0_22_192
*1301 FILLER_0_22_197
*1302 FILLER_0_22_233
*1303 FILLER_0_22_245
*1304 FILLER_0_22_251
*1305 FILLER_0_22_253
*1306 FILLER_0_22_259
*1307 FILLER_0_22_293
*1308 FILLER_0_22_299
*1309 FILLER_0_22_3
*1310 FILLER_0_22_307
*1311 FILLER_0_22_309
*1312 FILLER_0_22_325
*1313 FILLER_0_22_333
*1314 FILLER_0_22_45
*1315 FILLER_0_22_55
*1316 FILLER_0_22_67
*1317 FILLER_0_22_88
*1318 FILLER_0_22_97
*1319 FILLER_0_23_106
*1320 FILLER_0_23_113
*1321 FILLER_0_23_119
*1322 FILLER_0_23_140
*1323 FILLER_0_23_15
*1324 FILLER_0_23_21
*1325 FILLER_0_23_214
*1326 FILLER_0_23_222
*1327 FILLER_0_23_225
*1328 FILLER_0_23_253
*1329 FILLER_0_23_257
*1330 FILLER_0_23_268
*1331 FILLER_0_23_279
*1332 FILLER_0_23_289
*1333 FILLER_0_23_3
*1334 FILLER_0_23_30
*1335 FILLER_0_23_301
*1336 FILLER_0_23_307
*1337 FILLER_0_23_334
*1338 FILLER_0_23_41
*1339 FILLER_0_23_53
*1340 FILLER_0_23_94
*1341 FILLER_0_24_105
*1342 FILLER_0_24_113
*1343 FILLER_0_24_134
*1344 FILLER_0_24_139
*1345 FILLER_0_24_141
*1346 FILLER_0_24_15
*1347 FILLER_0_24_21
*1348 FILLER_0_24_217
*1349 FILLER_0_24_225
*1350 FILLER_0_24_25
*1351 FILLER_0_24_261
*1352 FILLER_0_24_283
*1353 FILLER_0_24_29
*1354 FILLER_0_24_295
*1355 FILLER_0_24_3
*1356 FILLER_0_24_333
*1357 FILLER_0_24_36
*1358 FILLER_0_24_44
*1359 FILLER_0_24_56
*1360 FILLER_0_24_64
*1361 FILLER_0_24_76
*1362 FILLER_0_24_83
*1363 FILLER_0_24_89
*1364 FILLER_0_24_93
*1365 FILLER_0_25_101
*1366 FILLER_0_25_138
*1367 FILLER_0_25_166
*1368 FILLER_0_25_225
*1369 FILLER_0_25_237
*1370 FILLER_0_25_251
*1371 FILLER_0_25_257
*1372 FILLER_0_25_276
*1373 FILLER_0_25_290
*1374 FILLER_0_25_3
*1375 FILLER_0_25_302
*1376 FILLER_0_25_334
*1377 FILLER_0_25_35
*1378 FILLER_0_25_53
*1379 FILLER_0_25_57
*1380 FILLER_0_26_101
*1381 FILLER_0_26_138
*1382 FILLER_0_26_149
*1383 FILLER_0_26_194
*1384 FILLER_0_26_22
*1385 FILLER_0_26_221
*1386 FILLER_0_26_233
*1387 FILLER_0_26_245
*1388 FILLER_0_26_251
*1389 FILLER_0_26_253
*1390 FILLER_0_26_29
*1391 FILLER_0_26_3
*1392 FILLER_0_26_333
*1393 FILLER_0_26_57
*1394 FILLER_0_26_65
*1395 FILLER_0_27_103
*1396 FILLER_0_27_111
*1397 FILLER_0_27_177
*1398 FILLER_0_27_222
*1399 FILLER_0_27_239
*1400 FILLER_0_27_247
*1401 FILLER_0_27_266
*1402 FILLER_0_27_285
*1403 FILLER_0_27_296
*1404 FILLER_0_27_3
*1405 FILLER_0_27_313
*1406 FILLER_0_27_334
*1407 FILLER_0_27_46
*1408 FILLER_0_27_55
*1409 FILLER_0_27_63
*1410 FILLER_0_27_69
*1411 FILLER_0_27_74
*1412 FILLER_0_28_102
*1413 FILLER_0_28_11
*1414 FILLER_0_28_141
*1415 FILLER_0_28_186
*1416 FILLER_0_28_195
*1417 FILLER_0_28_202
*1418 FILLER_0_28_211
*1419 FILLER_0_28_22
*1420 FILLER_0_28_235
*1421 FILLER_0_28_249
*1422 FILLER_0_28_262
*1423 FILLER_0_28_268
*1424 FILLER_0_28_29
*1425 FILLER_0_28_3
*1426 FILLER_0_28_333
*1427 FILLER_0_28_45
*1428 FILLER_0_28_60
*1429 FILLER_0_28_72
*1430 FILLER_0_28_76
*1431 FILLER_0_28_83
*1432 FILLER_0_28_85
*1433 FILLER_0_28_89
*1434 FILLER_0_29_100
*1435 FILLER_0_29_104
*1436 FILLER_0_29_11
*1437 FILLER_0_29_110
*1438 FILLER_0_29_113
*1439 FILLER_0_29_117
*1440 FILLER_0_29_133
*1441 FILLER_0_29_20
*1442 FILLER_0_29_250
*1443 FILLER_0_29_277
*1444 FILLER_0_29_281
*1445 FILLER_0_29_293
*1446 FILLER_0_29_3
*1447 FILLER_0_29_301
*1448 FILLER_0_29_310
*1449 FILLER_0_29_322
*1450 FILLER_0_29_334
*1451 FILLER_0_29_34
*1452 FILLER_0_29_42
*1453 FILLER_0_29_50
*1454 FILLER_0_29_70
*1455 FILLER_0_29_88
*1456 FILLER_0_2_109
*1457 FILLER_0_2_121
*1458 FILLER_0_2_133
*1459 FILLER_0_2_139
*1460 FILLER_0_2_141
*1461 FILLER_0_2_15
*1462 FILLER_0_2_153
*1463 FILLER_0_2_165
*1464 FILLER_0_2_177
*1465 FILLER_0_2_189
*1466 FILLER_0_2_195
*1467 FILLER_0_2_197
*1468 FILLER_0_2_209
*1469 FILLER_0_2_221
*1470 FILLER_0_2_233
*1471 FILLER_0_2_245
*1472 FILLER_0_2_251
*1473 FILLER_0_2_253
*1474 FILLER_0_2_265
*1475 FILLER_0_2_27
*1476 FILLER_0_2_277
*1477 FILLER_0_2_289
*1478 FILLER_0_2_29
*1479 FILLER_0_2_3
*1480 FILLER_0_2_301
*1481 FILLER_0_2_307
*1482 FILLER_0_2_309
*1483 FILLER_0_2_321
*1484 FILLER_0_2_333
*1485 FILLER_0_2_41
*1486 FILLER_0_2_53
*1487 FILLER_0_2_65
*1488 FILLER_0_2_77
*1489 FILLER_0_2_83
*1490 FILLER_0_2_85
*1491 FILLER_0_2_97
*1492 FILLER_0_30_11
*1493 FILLER_0_30_141
*1494 FILLER_0_30_162
*1495 FILLER_0_30_190
*1496 FILLER_0_30_209
*1497 FILLER_0_30_242
*1498 FILLER_0_30_250
*1499 FILLER_0_30_253
*1500 FILLER_0_30_262
*1501 FILLER_0_30_270
*1502 FILLER_0_30_282
*1503 FILLER_0_30_294
*1504 FILLER_0_30_3
*1505 FILLER_0_30_302
*1506 FILLER_0_30_314
*1507 FILLER_0_30_331
*1508 FILLER_0_30_37
*1509 FILLER_0_30_49
*1510 FILLER_0_30_67
*1511 FILLER_0_30_81
*1512 FILLER_0_30_85
*1513 FILLER_0_30_97
*1514 FILLER_0_31_111
*1515 FILLER_0_31_140
*1516 FILLER_0_31_147
*1517 FILLER_0_31_165
*1518 FILLER_0_31_175
*1519 FILLER_0_31_204
*1520 FILLER_0_31_228
*1521 FILLER_0_31_240
*1522 FILLER_0_31_3
*1523 FILLER_0_31_305
*1524 FILLER_0_31_323
*1525 FILLER_0_31_333
*1526 FILLER_0_31_43
*1527 FILLER_0_31_7
*1528 FILLER_0_31_70
*1529 FILLER_0_31_82
*1530 FILLER_0_31_90
*1531 FILLER_0_32_118
*1532 FILLER_0_32_141
*1533 FILLER_0_32_149
*1534 FILLER_0_32_153
*1535 FILLER_0_32_166
*1536 FILLER_0_32_170
*1537 FILLER_0_32_187
*1538 FILLER_0_32_195
*1539 FILLER_0_32_197
*1540 FILLER_0_32_203
*1541 FILLER_0_32_213
*1542 FILLER_0_32_238
*1543 FILLER_0_32_244
*1544 FILLER_0_32_269
*1545 FILLER_0_32_27
*1546 FILLER_0_32_281
*1547 FILLER_0_32_298
*1548 FILLER_0_32_3
*1549 FILLER_0_32_333
*1550 FILLER_0_32_39
*1551 FILLER_0_32_47
*1552 FILLER_0_32_66
*1553 FILLER_0_32_70
*1554 FILLER_0_32_74
*1555 FILLER_0_32_82
*1556 FILLER_0_32_85
*1557 FILLER_0_32_97
*1558 FILLER_0_33_104
*1559 FILLER_0_33_108
*1560 FILLER_0_33_11
*1561 FILLER_0_33_113
*1562 FILLER_0_33_117
*1563 FILLER_0_33_124
*1564 FILLER_0_33_130
*1565 FILLER_0_33_142
*1566 FILLER_0_33_149
*1567 FILLER_0_33_161
*1568 FILLER_0_33_167
*1569 FILLER_0_33_169
*1570 FILLER_0_33_17
*1571 FILLER_0_33_181
*1572 FILLER_0_33_234
*1573 FILLER_0_33_246
*1574 FILLER_0_33_277
*1575 FILLER_0_33_281
*1576 FILLER_0_33_289