*SPEF "ieee 1481-1999"
*DESIGN "tt_um_entwurf_integrierter_schaltungen_hadner"
*DATE "09:10:02 Wednesday April 10, 2024"
*VENDOR "The OpenROAD Project"
*PROGRAM "OpenROAD"
*VERSION "0889970d1790a2617e69f253221b8bd7626e51dc"
*DESIGN_FLOW "NAME_SCOPE LOCAL" "PIN_CAP NONE"
*DIVIDER /
*DELIMITER :
*BUS_DELIMITER []
*T_UNIT 1 NS
*C_UNIT 1 PF
*R_UNIT 1 OHM
*L_UNIT 1 HENRY

*NAME_MAP
*3 clk
*4 ena
*5 rst_n
*6 ui_in[0]
*7 ui_in[1]
*8 ui_in[2]
*9 ui_in[3]
*10 ui_in[4]
*11 ui_in[5]
*12 ui_in[6]
*13 ui_in[7]
*14 uio_in[0]
*15 uio_in[1]
*16 uio_in[2]
*17 uio_in[3]
*18 uio_in[4]
*19 uio_in[5]
*20 uio_in[6]
*21 uio_in[7]
*22 net10
*23 net11
*24 net12
*25 net13
*26 net14
*27 net15
*28 net16
*29 net17
*30 uio_out[0]
*31 uio_out[1]
*32 uio_out[2]
*33 uio_out[3]
*34 uio_out[4]
*35 uio_out[5]
*36 uio_out[6]
*37 uio_out[7]
*38 uo_out[0]
*39 uo_out[1]
*40 uo_out[2]
*41 uo_out[3]
*42 uo_out[4]
*43 uo_out[5]
*44 uo_out[6]
*45 uo_out[7]
*46 _0000_
*47 _0001_
*48 _0002_
*49 _0003_
*50 _0004_
*51 _0005_
*52 _0006_
*53 _0007_
*54 _0008_
*55 _0009_
*56 _0010_
*57 _0039_
*58 _0040_
*59 _0041_
*60 _0042_
*61 _0043_
*62 _0044_
*63 _0045_
*64 _0046_
*65 _0047_
*66 _0048_
*67 _0049_
*68 _0050_
*69 _0051_
*70 _0052_
*71 _0053_
*72 _0054_
*73 _0055_
*74 _0056_
*75 _0057_
*76 _0058_
*77 _0059_
*78 _0060_
*79 _0061_
*80 _0062_
*81 _0063_
*82 _0064_
*83 _0065_
*84 _0066_
*85 _0067_
*86 _0068_
*87 _0069_
*88 _0070_
*89 _0071_
*90 _0072_
*91 _0073_
*92 _0074_
*93 _0075_
*94 _0076_
*95 _0077_
*96 _0078_
*97 _0079_
*98 _0080_
*99 _0081_
*100 _0082_
*101 _0083_
*102 _0084_
*103 _0085_
*104 _0086_
*105 _0087_
*106 _0088_
*107 _0089_
*108 _0090_
*109 _0091_
*110 _0092_
*111 _0093_
*112 _0094_
*113 _0095_
*114 _0096_
*115 _0097_
*116 _0098_
*117 _0099_
*118 _0100_
*119 _0101_
*120 _0102_
*121 _0103_
*122 _0104_
*123 _0105_
*124 _0106_
*125 _0107_
*126 _0108_
*127 _0109_
*128 _0110_
*129 _0111_
*130 _0112_
*131 _0113_
*132 _0114_
*133 _0115_
*134 _0116_
*135 _0117_
*136 _0118_
*137 _0119_
*138 _0120_
*139 _0121_
*140 _0122_
*141 _0123_
*142 _0124_
*143 _0125_
*144 _0126_
*145 _0127_
*146 _0128_
*147 _0129_
*148 _0130_
*149 _0131_
*150 _0132_
*151 _0133_
*152 _0134_
*153 _0135_
*154 _0136_
*155 _0137_
*156 _0138_
*157 _0139_
*158 _0140_
*159 _0141_
*160 _0142_
*161 _0143_
*162 _0144_
*163 _0145_
*164 _0146_
*165 _0147_
*166 _0148_
*167 _0149_
*168 _0150_
*169 _0151_
*170 _0152_
*171 _0153_
*172 _0154_
*173 _0155_
*174 _0156_
*175 _0157_
*176 _0158_
*177 _0159_
*178 _0160_
*179 _0161_
*180 _0162_
*181 _0163_
*182 _0164_
*183 _0165_
*184 _0166_
*185 _0167_
*186 _0168_
*187 _0169_
*188 _0170_
*189 _0171_
*190 _0172_
*191 _0173_
*192 _0174_
*193 _0175_
*194 _0176_
*195 _0177_
*196 _0178_
*197 _0179_
*198 _0180_
*199 _0181_
*200 _0182_
*201 _0183_
*202 _0184_
*203 _0185_
*204 _0186_
*205 _0187_
*206 _0188_
*207 _0189_
*208 _0190_
*209 _0191_
*210 _0192_
*211 _0193_
*212 _0194_
*213 _0195_
*214 _0196_
*215 _0197_
*216 _0198_
*217 _0199_
*218 _0200_
*219 _0201_
*220 _0202_
*221 _0203_
*222 _0204_
*223 _0205_
*224 _0206_
*225 _0207_
*226 _0208_
*227 _0209_
*228 _0210_
*229 _0211_
*230 _0212_
*231 _0213_
*232 _0214_
*233 _0215_
*234 _0216_
*235 _0217_
*236 _0218_
*237 _0219_
*238 _0220_
*239 _0221_
*240 _0222_
*241 _0223_
*242 _0224_
*243 _0225_
*244 _0226_
*245 _0227_
*246 _0228_
*247 _0229_
*248 _0230_
*249 _0231_
*250 _0232_
*251 _0233_
*252 _0234_
*253 _0235_
*254 _0236_
*255 _0237_
*256 _0238_
*257 _0239_
*258 _0240_
*259 _0241_
*260 _0242_
*261 _0243_
*262 _0244_
*263 _0245_
*264 _0246_
*265 _0247_
*266 _0248_
*267 _0249_
*268 _0250_
*269 _0251_
*270 _0252_
*271 _0253_
*272 _0254_
*273 _0255_
*274 _0256_
*275 _0257_
*276 _0258_
*277 _0259_
*278 _0260_
*279 _0261_
*280 _0262_
*281 _0263_
*282 _0264_
*283 _0265_
*284 _0266_
*285 _0267_
*286 _0268_
*287 _0269_
*288 _0270_
*289 _0271_
*290 _0272_
*291 _0273_
*292 _0274_
*293 _0275_
*294 _0276_
*295 _0277_
*296 _0278_
*297 _0279_
*298 _0280_
*299 _0281_
*300 _0282_
*301 _0283_
*302 _0284_
*303 _0285_
*304 _0286_
*305 _0287_
*306 _0288_
*307 _0289_
*308 _0290_
*309 _0291_
*310 _0292_
*311 _0293_
*312 _0294_
*313 _0295_
*314 _0296_
*315 _0297_
*316 _0298_
*317 _0299_
*318 _0300_
*319 _0301_
*320 _0302_
*321 _0303_
*322 _0304_
*323 _0305_
*324 _0306_
*325 _0307_
*326 _0308_
*327 _0309_
*328 _0310_
*329 _0311_
*330 _0312_
*331 _0313_
*332 _0314_
*333 _0315_
*334 _0316_
*335 _0317_
*336 _0318_
*337 _0319_
*338 _0320_
*339 _0321_
*340 _0322_
*341 _0323_
*342 _0324_
*343 _0325_
*344 _0326_
*345 _0327_
*346 _0328_
*347 _0329_
*348 _0330_
*349 _0331_
*350 _0332_
*351 _0333_
*352 _0334_
*353 _0335_
*354 _0336_
*355 _0337_
*356 _0338_
*357 _0339_
*358 _0340_
*359 _0341_
*360 _0342_
*361 _0343_
*362 _0344_
*363 _0345_
*364 _0346_
*365 _0347_
*366 _0348_
*367 _0349_
*368 _0350_
*369 _0351_
*370 _0352_
*371 _0353_
*372 _0354_
*373 _0355_
*374 _0356_
*375 _0357_
*376 _0358_
*377 _0359_
*378 _0360_
*379 _0361_
*380 _0362_
*381 _0363_
*382 _0364_
*383 _0365_
*384 _0366_
*385 _0367_
*386 _0368_
*387 _0369_
*388 _0370_
*389 _0371_
*390 _0372_
*391 _0373_
*392 _0374_
*393 _0375_
*394 _0376_
*395 _0377_
*396 _0378_
*397 _0379_
*398 _0380_
*399 _0381_
*400 _0382_
*401 _0383_
*402 _0384_
*403 _0385_
*404 _0386_
*405 _0387_
*406 _0388_
*407 _0389_
*408 _0390_
*409 _0391_
*410 _0392_
*411 _0393_
*412 _0394_
*413 _0395_
*414 _0396_
*415 _0397_
*416 _0398_
*417 _0399_
*418 _0400_
*419 _0401_
*420 _0402_
*421 _0403_
*422 _0404_
*423 _0405_
*424 _0406_
*425 _0407_
*426 _0408_
*427 _0409_
*428 _0410_
*429 _0411_
*430 _0412_
*431 _0413_
*432 _0414_
*433 _0415_
*434 _0416_
*435 _0417_
*436 _0418_
*437 _0419_
*438 _0420_
*439 _0421_
*440 _0422_
*441 _0423_
*442 _0424_
*443 _0425_
*444 _0426_
*445 _0427_
*446 _0428_
*447 _0429_
*448 _0430_
*449 _0431_
*450 _0432_
*451 _0433_
*452 _0434_
*453 _0435_
*454 _0436_
*455 _0437_
*456 _0438_
*457 _0439_
*458 _0440_
*459 _0441_
*460 _0442_
*461 _0443_
*462 _0444_
*463 _0445_
*464 _0446_
*465 _0447_
*466 _0448_
*467 _0449_
*468 _0450_
*469 _0451_
*470 _0452_
*471 _0453_
*472 _0454_
*473 _0455_
*474 _0456_
*475 _0457_
*476 _0458_
*477 _0459_
*478 _0460_
*479 _0461_
*480 _0462_
*481 _0463_
*482 _0464_
*483 _0465_
*484 _0466_
*485 _0467_
*486 _0468_
*487 _0469_
*488 _0470_
*489 _0471_
*490 _0472_
*491 _0473_
*492 _0474_
*493 _0475_
*494 _0476_
*495 _0477_
*496 _0478_
*497 _0479_
*498 _0480_
*499 _0481_
*500 _0482_
*501 _0483_
*502 _0484_
*503 _0485_
*504 _0486_
*505 _0487_
*506 _0488_
*507 _0489_
*508 _0490_
*509 _0491_
*510 _0492_
*511 _0493_
*512 _0494_
*513 _0495_
*514 _0496_
*515 _0497_
*516 _0498_
*517 _0499_
*518 _0500_
*519 _0501_
*520 _0502_
*521 _0503_
*522 _0504_
*523 _0505_
*524 _0506_
*525 _0507_
*526 _0508_
*527 _0509_
*528 _0510_
*529 _0511_
*530 _0512_
*531 _0513_
*532 _0514_
*533 _0515_
*534 _0516_
*535 _0517_
*536 _0518_
*537 _0519_
*538 _0520_
*539 _0521_
*540 _0522_
*541 _0523_
*542 _0524_
*543 _0525_
*544 _0526_
*545 _0527_
*546 _0528_
*547 _0529_
*548 _0530_
*549 _0531_
*550 _0532_
*551 _0533_
*552 _0534_
*553 _0535_
*554 _0536_
*555 _0537_
*556 _0538_
*557 _0539_
*558 _0540_
*559 _0541_
*560 _0542_
*561 _0543_
*562 _0544_
*563 _0545_
*564 _0546_
*565 _0547_
*566 _0548_
*567 _0549_
*568 _0550_
*569 _0551_
*570 _0552_
*571 _0553_
*572 _0554_
*573 _0555_
*574 _0556_
*575 _0557_
*576 _0558_
*577 _0559_
*578 _0560_
*579 _0561_
*580 _0562_
*581 _0563_
*582 _0564_
*583 _0565_
*584 _0566_
*585 _0567_
*586 _0568_
*587 _0569_
*588 _0570_
*589 _0571_
*590 _0572_
*591 _0573_
*592 _0574_
*593 _0575_
*594 _0576_
*595 _0577_
*596 _0578_
*597 _0579_
*598 _0580_
*599 _0581_
*600 _0582_
*601 _0583_
*602 _0584_
*603 _0585_
*604 _0586_
*605 _0587_
*606 _0588_
*607 _0589_
*608 _0590_
*609 _0591_
*610 _0592_
*611 _0593_
*612 _0594_
*613 _0595_
*614 _0596_
*615 _0597_
*616 _0598_
*617 _0599_
*618 _0600_
*619 _0601_
*620 _0602_
*621 _0603_
*622 _0604_
*623 _0605_
*624 _0606_
*625 _0607_
*626 _0608_
*627 _0609_
*628 _0610_
*629 _0611_
*630 _0612_
*631 _0613_
*632 _0614_
*633 _0615_
*634 _0616_
*635 _0617_
*636 _0618_
*637 _0619_
*638 _0620_
*639 _0621_
*640 _0622_
*641 _0623_
*642 clknet_0__0346_
*643 clknet_0__0347_
*644 clknet_0__0580_
*645 clknet_0_clk
*646 clknet_1_0__leaf__0346_
*647 clknet_1_0__leaf__0347_
*648 clknet_1_0__leaf__0580_
*649 clknet_1_1__leaf__0346_
*650 clknet_1_1__leaf__0347_
*651 clknet_1_1__leaf__0580_
*652 clknet_4_0_0_clk
*653 clknet_4_10_0_clk
*654 clknet_4_11_0_clk
*655 clknet_4_12_0_clk
*656 clknet_4_13_0_clk
*657 clknet_4_14_0_clk
*658 clknet_4_15_0_clk
*659 clknet_4_1_0_clk
*660 clknet_4_2_0_clk
*661 clknet_4_3_0_clk
*662 clknet_4_4_0_clk
*663 clknet_4_5_0_clk
*664 clknet_4_6_0_clk
*665 clknet_4_7_0_clk
*666 clknet_4_8_0_clk
*667 clknet_4_9_0_clk
*668 net1
*669 net100
*670 net101
*671 net102
*672 net103
*673 net104
*674 net105
*675 net106
*676 net107
*677 net108
*678 net109
*679 net110
*680 net111
*681 net112
*682 net113
*683 net114
*684 net115
*685 net116
*686 net117
*687 net118
*688 net119
*689 net120
*690 net121
*691 net122
*692 net123
*693 net124
*694 net125
*695 net126
*696 net127
*697 net128
*698 net129
*699 net130
*700 net131
*701 net132
*702 net133
*703 net134
*704 net135
*705 net136
*706 net137
*707 net138
*708 net139
*709 net140
*710 net141
*711 net142
*712 net143
*713 net144
*714 net145
*715 net146
*716 net147
*717 net148
*718 net149
*719 net18
*720 net19
*721 net2
*722 net20
*723 net21
*724 net22
*725 net23
*726 net24
*727 net25
*728 net26
*729 net27
*730 net28
*731 net29
*732 net3
*733 net30
*734 net31
*735 net32
*736 net33
*737 net34
*738 net35
*739 net36
*740 net37
*741 net38
*742 net39
*743 net4
*744 net40
*745 net41
*746 net42
*747 net43
*748 net44
*749 net45
*750 net46
*751 net47
*752 net48
*753 net49
*754 net5
*755 net50
*756 net51
*757 net52
*758 net53
*759 net54
*760 net55
*761 net56
*762 net57
*763 net58
*764 net59
*765 net6
*766 net60
*767 net61
*768 net62
*769 net63
*770 net64
*771 net65
*772 net66
*773 net67
*774 net68
*775 net69
*776 net7
*777 net70
*778 net71
*779 net72
*780 net73
*781 net74
*782 net75
*783 net76
*784 net77
*785 net78
*786 net79
*787 net8
*788 net80
*789 net81
*790 net82
*791 net83
*792 net84
*793 net85
*794 net86
*795 net87
*796 net88
*797 net89
*798 net9
*799 net90
*800 net91
*801 net92
*802 net93
*803 net94
*804 net95
*805 net96
*806 net97
*807 net98
*808 net99
*809 ones_counter_1\.ones\[0\]
*810 ones_counter_1\.ones\[1\]
*811 ones_counter_1\.ones\[2\]
*812 ones_counter_1\.ones\[3\]
*813 pwm_analyzer_0\.counter_1\.counter_val\[0\]
*814 pwm_analyzer_0\.counter_1\.counter_val\[10\]
*815 pwm_analyzer_0\.counter_1\.counter_val\[1\]
*816 pwm_analyzer_0\.counter_1\.counter_val\[2\]
*817 pwm_analyzer_0\.counter_1\.counter_val\[3\]
*818 pwm_analyzer_0\.counter_1\.counter_val\[4\]
*819 pwm_analyzer_0\.counter_1\.counter_val\[5\]
*820 pwm_analyzer_0\.counter_1\.counter_val\[6\]
*821 pwm_analyzer_0\.counter_1\.counter_val\[7\]
*822 pwm_analyzer_0\.counter_1\.counter_val\[8\]
*823 pwm_analyzer_0\.counter_1\.counter_val\[9\]
*824 pwm_analyzer_0\.counter_1\.current_enable_state\[0\]
*825 pwm_analyzer_0\.counter_1\.finished
*826 pwm_analyzer_0\.output_pin
*827 pwm_analyzer_1\.counter_1\.counter_val\[0\]
*828 pwm_analyzer_1\.counter_1\.counter_val\[10\]
*829 pwm_analyzer_1\.counter_1\.counter_val\[1\]
*830 pwm_analyzer_1\.counter_1\.counter_val\[2\]
*831 pwm_analyzer_1\.counter_1\.counter_val\[3\]
*832 pwm_analyzer_1\.counter_1\.counter_val\[4\]
*833 pwm_analyzer_1\.counter_1\.counter_val\[5\]
*834 pwm_analyzer_1\.counter_1\.counter_val\[6\]
*835 pwm_analyzer_1\.counter_1\.counter_val\[7\]
*836 pwm_analyzer_1\.counter_1\.counter_val\[8\]
*837 pwm_analyzer_1\.counter_1\.counter_val\[9\]
*838 pwm_analyzer_1\.counter_1\.current_enable_state\[0\]
*839 pwm_analyzer_1\.counter_1\.finished
*840 pwm_analyzer_1\.output_pin
*841 pwm_analyzer_2\.counter_1\.counter_val\[0\]
*842 pwm_analyzer_2\.counter_1\.counter_val\[10\]
*843 pwm_analyzer_2\.counter_1\.counter_val\[1\]
*844 pwm_analyzer_2\.counter_1\.counter_val\[2\]
*845 pwm_analyzer_2\.counter_1\.counter_val\[3\]
*846 pwm_analyzer_2\.counter_1\.counter_val\[4\]
*847 pwm_analyzer_2\.counter_1\.counter_val\[5\]
*848 pwm_analyzer_2\.counter_1\.counter_val\[6\]
*849 pwm_analyzer_2\.counter_1\.counter_val\[7\]
*850 pwm_analyzer_2\.counter_1\.counter_val\[8\]
*851 pwm_analyzer_2\.counter_1\.counter_val\[9\]
*852 pwm_analyzer_2\.counter_1\.current_enable_state\[0\]
*853 pwm_analyzer_2\.counter_1\.finished
*854 pwm_analyzer_2\.output_pin
*855 pwm_analyzer_3\.counter_1\.counter_val\[0\]
*856 pwm_analyzer_3\.counter_1\.counter_val\[10\]
*857 pwm_analyzer_3\.counter_1\.counter_val\[1\]
*858 pwm_analyzer_3\.counter_1\.counter_val\[2\]
*859 pwm_analyzer_3\.counter_1\.counter_val\[3\]
*860 pwm_analyzer_3\.counter_1\.counter_val\[4\]
*861 pwm_analyzer_3\.counter_1\.counter_val\[5\]
*862 pwm_analyzer_3\.counter_1\.counter_val\[6\]
*863 pwm_analyzer_3\.counter_1\.counter_val\[7\]
*864 pwm_analyzer_3\.counter_1\.counter_val\[8\]
*865 pwm_analyzer_3\.counter_1\.counter_val\[9\]
*866 pwm_analyzer_3\.counter_1\.current_enable_state\[0\]
*867 pwm_analyzer_3\.counter_1\.finished
*868 pwm_analyzer_3\.output_pin
*869 pwm_analyzer_4\.counter_1\.counter_val\[0\]
*870 pwm_analyzer_4\.counter_1\.counter_val\[10\]
*871 pwm_analyzer_4\.counter_1\.counter_val\[1\]
*872 pwm_analyzer_4\.counter_1\.counter_val\[2\]
*873 pwm_analyzer_4\.counter_1\.counter_val\[3\]
*874 pwm_analyzer_4\.counter_1\.counter_val\[4\]
*875 pwm_analyzer_4\.counter_1\.counter_val\[5\]
*876 pwm_analyzer_4\.counter_1\.counter_val\[6\]
*877 pwm_analyzer_4\.counter_1\.counter_val\[7\]
*878 pwm_analyzer_4\.counter_1\.counter_val\[8\]
*879 pwm_analyzer_4\.counter_1\.counter_val\[9\]
*880 pwm_analyzer_4\.counter_1\.current_enable_state\[0\]
*881 pwm_analyzer_4\.counter_1\.finished
*882 pwm_analyzer_4\.output_pin
*883 pwm_analyzer_5\.counter_1\.counter_val\[0\]
*884 pwm_analyzer_5\.counter_1\.counter_val\[10\]
*885 pwm_analyzer_5\.counter_1\.counter_val\[1\]
*886 pwm_analyzer_5\.counter_1\.counter_val\[2\]
*887 pwm_analyzer_5\.counter_1\.counter_val\[3\]
*888 pwm_analyzer_5\.counter_1\.counter_val\[4\]
*889 pwm_analyzer_5\.counter_1\.counter_val\[5\]
*890 pwm_analyzer_5\.counter_1\.counter_val\[6\]
*891 pwm_analyzer_5\.counter_1\.counter_val\[7\]
*892 pwm_analyzer_5\.counter_1\.counter_val\[8\]
*893 pwm_analyzer_5\.counter_1\.counter_val\[9\]
*894 pwm_analyzer_5\.counter_1\.current_enable_state\[0\]
*895 pwm_analyzer_5\.counter_1\.finished
*896 pwm_analyzer_5\.output_pin
*897 pwm_analyzer_6\.counter_1\.counter_val\[0\]
*898 pwm_analyzer_6\.counter_1\.counter_val\[10\]
*899 pwm_analyzer_6\.counter_1\.counter_val\[1\]
*900 pwm_analyzer_6\.counter_1\.counter_val\[2\]
*901 pwm_analyzer_6\.counter_1\.counter_val\[3\]
*902 pwm_analyzer_6\.counter_1\.counter_val\[4\]
*903 pwm_analyzer_6\.counter_1\.counter_val\[5\]
*904 pwm_analyzer_6\.counter_1\.counter_val\[6\]
*905 pwm_analyzer_6\.counter_1\.counter_val\[7\]
*906 pwm_analyzer_6\.counter_1\.counter_val\[8\]
*907 pwm_analyzer_6\.counter_1\.counter_val\[9\]
*908 pwm_analyzer_6\.counter_1\.current_enable_state\[0\]
*909 pwm_analyzer_6\.counter_1\.finished
*910 pwm_analyzer_6\.output_pin
*911 pwm_analyzer_7\.counter_1\.counter_val\[0\]
*912 pwm_analyzer_7\.counter_1\.counter_val\[10\]
*913 pwm_analyzer_7\.counter_1\.counter_val\[1\]
*914 pwm_analyzer_7\.counter_1\.counter_val\[2\]
*915 pwm_analyzer_7\.counter_1\.counter_val\[3\]
*916 pwm_analyzer_7\.counter_1\.counter_val\[4\]
*917 pwm_analyzer_7\.counter_1\.counter_val\[5\]
*918 pwm_analyzer_7\.counter_1\.counter_val\[6\]
*919 pwm_analyzer_7\.counter_1\.counter_val\[7\]
*920 pwm_analyzer_7\.counter_1\.counter_val\[8\]
*921 pwm_analyzer_7\.counter_1\.counter_val\[9\]
*922 pwm_analyzer_7\.counter_1\.current_enable_state\[0\]
*923 pwm_analyzer_7\.counter_1\.finished
*924 pwm_analyzer_7\.output_pin
*925 uart_transmitter_1\.bit_counter\[0\]
*926 uart_transmitter_1\.bit_counter\[1\]
*927 uart_transmitter_1\.bit_counter\[2\]
*928 uart_transmitter_1\.cur_counter\[0\]
*929 uart_transmitter_1\.cur_counter\[1\]
*930 uart_transmitter_1\.cur_counter\[2\]
*931 uart_transmitter_1\.cur_counter\[3\]
*932 uart_transmitter_1\.old_counter\[0\]
*933 uart_transmitter_1\.old_counter\[1\]
*934 uart_transmitter_1\.old_counter\[2\]
*935 uart_transmitter_1\.old_counter\[3\]
*936 uart_transmitter_1\.shift_reg\[0\]
*937 uart_transmitter_1\.shift_reg\[1\]
*938 uart_transmitter_1\.shift_reg\[2\]
*939 uart_transmitter_1\.shift_reg\[3\]
*940 uart_transmitter_1\.state\[0\]
*941 uart_transmitter_1\.state\[1\]
*942 uart_transmitter_1\.state\[2\]
*943 uart_transmitter_1\.state\[3\]
*944 uart_transmitter_1\.uart_transmit_o
*945 FILLER_0_0_109
*946 FILLER_0_0_113
*947 FILLER_0_0_125
*948 FILLER_0_0_137
*949 FILLER_0_0_141
*950 FILLER_0_0_15
*951 FILLER_0_0_153
*952 FILLER_0_0_165
*953 FILLER_0_0_169
*954 FILLER_0_0_181
*955 FILLER_0_0_193
*956 FILLER_0_0_197
*957 FILLER_0_0_209
*958 FILLER_0_0_221
*959 FILLER_0_0_225
*960 FILLER_0_0_237
*961 FILLER_0_0_249
*962 FILLER_0_0_253
*963 FILLER_0_0_265
*964 FILLER_0_0_27
*965 FILLER_0_0_277
*966 FILLER_0_0_281
*967 FILLER_0_0_29
*968 FILLER_0_0_293
*969 FILLER_0_0_3
*970 FILLER_0_0_305
*971 FILLER_0_0_309
*972 FILLER_0_0_321
*973 FILLER_0_0_333
*974 FILLER_0_0_41
*975 FILLER_0_0_53
*976 FILLER_0_0_57
*977 FILLER_0_0_69
*978 FILLER_0_0_81
*979 FILLER_0_0_85
*980 FILLER_0_0_97
*981 FILLER_0_10_113
*982 FILLER_0_10_121
*983 FILLER_0_10_133
*984 FILLER_0_10_141
*985 FILLER_0_10_156
*986 FILLER_0_10_168
*987 FILLER_0_10_180
*988 FILLER_0_10_192
*989 FILLER_0_10_225
*990 FILLER_0_10_237
*991 FILLER_0_10_249
*992 FILLER_0_10_253
*993 FILLER_0_10_261
*994 FILLER_0_10_27
*995 FILLER_0_10_276
*996 FILLER_0_10_292
*997 FILLER_0_10_3
*998 FILLER_0_10_304
*999 FILLER_0_10_309
*1000 FILLER_0_10_330
*1001 FILLER_0_10_334
*1002 FILLER_0_10_35
*1003 FILLER_0_10_47
*1004 FILLER_0_10_64
*1005 FILLER_0_10_77
*1006 FILLER_0_10_83
*1007 FILLER_0_10_85
*1008 FILLER_0_10_89
*1009 FILLER_0_11_110
*1010 FILLER_0_11_121
*1011 FILLER_0_11_140
*1012 FILLER_0_11_15
*1013 FILLER_0_11_166
*1014 FILLER_0_11_169
*1015 FILLER_0_11_181
*1016 FILLER_0_11_205
*1017 FILLER_0_11_235
*1018 FILLER_0_11_247
*1019 FILLER_0_11_259
*1020 FILLER_0_11_26
*1021 FILLER_0_11_263
*1022 FILLER_0_11_294
*1023 FILLER_0_11_3
*1024 FILLER_0_11_329
*1025 FILLER_0_11_38
*1026 FILLER_0_11_46
*1027 FILLER_0_11_81
*1028 FILLER_0_12_102
*1029 FILLER_0_12_114
*1030 FILLER_0_12_119
*1031 FILLER_0_12_131
*1032 FILLER_0_12_144
*1033 FILLER_0_12_15
*1034 FILLER_0_12_159
*1035 FILLER_0_12_171
*1036 FILLER_0_12_179
*1037 FILLER_0_12_188
*1038 FILLER_0_12_197
*1039 FILLER_0_12_21
*1040 FILLER_0_12_238
*1041 FILLER_0_12_250
*1042 FILLER_0_12_270
*1043 FILLER_0_12_277
*1044 FILLER_0_12_288
*1045 FILLER_0_12_297
*1046 FILLER_0_12_3
*1047 FILLER_0_12_305
*1048 FILLER_0_12_309
*1049 FILLER_0_12_314
*1050 FILLER_0_12_332
*1051 FILLER_0_12_44
*1052 FILLER_0_12_56
*1053 FILLER_0_12_62
*1054 FILLER_0_12_81
*1055 FILLER_0_12_85
*1056 FILLER_0_12_89
*1057 FILLER_0_12_98
*1058 FILLER_0_13_105
*1059 FILLER_0_13_111
*1060 FILLER_0_13_141
*1061 FILLER_0_13_155
*1062 FILLER_0_13_167
*1063 FILLER_0_13_169
*1064 FILLER_0_13_186
*1065 FILLER_0_13_203
*1066 FILLER_0_13_207
*1067 FILLER_0_13_219
*1068 FILLER_0_13_223
*1069 FILLER_0_13_225
*1070 FILLER_0_13_233
*1071 FILLER_0_13_24
*1072 FILLER_0_13_255
*1073 FILLER_0_13_284
*1074 FILLER_0_13_296
*1075 FILLER_0_13_3
*1076 FILLER_0_13_327
*1077 FILLER_0_13_44
*1078 FILLER_0_13_50
*1079 FILLER_0_13_57
*1080 FILLER_0_13_7
*1081 FILLER_0_13_79
*1082 FILLER_0_13_91
*1083 FILLER_0_13_97
*1084 FILLER_0_14_104
*1085 FILLER_0_14_112
*1086 FILLER_0_14_131
*1087 FILLER_0_14_163
*1088 FILLER_0_14_169
*1089 FILLER_0_14_186
*1090 FILLER_0_14_195
*1091 FILLER_0_14_228
*1092 FILLER_0_14_236
*1093 FILLER_0_14_253
*1094 FILLER_0_14_26
*1095 FILLER_0_14_288
*1096 FILLER_0_14_292
*1097 FILLER_0_14_296
*1098 FILLER_0_14_3
*1099 FILLER_0_14_332
*1100 FILLER_0_14_50
*1101 FILLER_0_14_64
*1102 FILLER_0_14_85
*1103 FILLER_0_14_9
*1104 FILLER_0_15_11
*1105 FILLER_0_15_111
*1106 FILLER_0_15_113
*1107 FILLER_0_15_119
*1108 FILLER_0_15_144
*1109 FILLER_0_15_163
*1110 FILLER_0_15_167
*1111 FILLER_0_15_169
*1112 FILLER_0_15_177
*1113 FILLER_0_15_221
*1114 FILLER_0_15_225
*1115 FILLER_0_15_243
*1116 FILLER_0_15_253
*1117 FILLER_0_15_26
*1118 FILLER_0_15_279
*1119 FILLER_0_15_297
*1120 FILLER_0_15_3
*1121 FILLER_0_15_327
*1122 FILLER_0_15_39
*1123 FILLER_0_15_51
*1124 FILLER_0_15_62
*1125 FILLER_0_15_80
*1126 FILLER_0_16_110
*1127 FILLER_0_16_118
*1128 FILLER_0_16_139
*1129 FILLER_0_16_141
*1130 FILLER_0_16_15
*1131 FILLER_0_16_162
*1132 FILLER_0_16_174
*1133 FILLER_0_16_186
*1134 FILLER_0_16_197
*1135 FILLER_0_16_223
*1136 FILLER_0_16_229
*1137 FILLER_0_16_253
*1138 FILLER_0_16_257
*1139 FILLER_0_16_265
*1140 FILLER_0_16_27
*1141 FILLER_0_16_293
*1142 FILLER_0_16_3
*1143 FILLER_0_16_301
*1144 FILLER_0_16_309
*1145 FILLER_0_16_327
*1146 FILLER_0_16_45
*1147 FILLER_0_16_81
*1148 FILLER_0_16_89
*1149 FILLER_0_16_93
*1150 FILLER_0_17_102
*1151 FILLER_0_17_122
*1152 FILLER_0_17_134
*1153 FILLER_0_17_138
*1154 FILLER_0_17_146
*1155 FILLER_0_17_15
*1156 FILLER_0_17_153
*1157 FILLER_0_17_165
*1158 FILLER_0_17_169
*1159 FILLER_0_17_181
*1160 FILLER_0_17_187
*1161 FILLER_0_17_225
*1162 FILLER_0_17_245
*1163 FILLER_0_17_257
*1164 FILLER_0_17_266
*1165 FILLER_0_17_289
*1166 FILLER_0_17_3
*1167 FILLER_0_17_301
*1168 FILLER_0_17_310
*1169 FILLER_0_17_317
*1170 FILLER_0_17_329
*1171 FILLER_0_17_34
*1172 FILLER_0_17_46
*1173 FILLER_0_17_54
*1174 FILLER_0_18_100
*1175 FILLER_0_18_106
*1176 FILLER_0_18_127
*1177 FILLER_0_18_139
*1178 FILLER_0_18_149
*1179 FILLER_0_18_161
*1180 FILLER_0_18_181
*1181 FILLER_0_18_192
*1182 FILLER_0_18_197
*1183 FILLER_0_18_209
*1184 FILLER_0_18_22
*1185 FILLER_0_18_221
*1186 FILLER_0_18_225
*1187 FILLER_0_18_246
*1188 FILLER_0_18_253
*1189 FILLER_0_18_257
*1190 FILLER_0_18_274
*1191 FILLER_0_18_293
*1192 FILLER_0_18_3
*1193 FILLER_0_18_305
*1194 FILLER_0_18_312
*1195 FILLER_0_18_32
*1196 FILLER_0_18_332
*1197 FILLER_0_18_44
*1198 FILLER_0_18_56
*1199 FILLER_0_18_74
*1200 FILLER_0_18_85
*1201 FILLER_0_18_91
*1202 FILLER_0_19_106
*1203 FILLER_0_19_113
*1204 FILLER_0_19_128
*1205 FILLER_0_19_136
*1206 FILLER_0_19_162
*1207 FILLER_0_19_185
*1208 FILLER_0_19_197
*1209 FILLER_0_19_221
*1210 FILLER_0_19_225
*1211 FILLER_0_19_231
*1212 FILLER_0_19_249
*1213 FILLER_0_19_261
*1214 FILLER_0_19_278
*1215 FILLER_0_19_281
*1216 FILLER_0_19_293
*1217 FILLER_0_19_3
*1218 FILLER_0_19_322
*1219 FILLER_0_19_334
*1220 FILLER_0_19_55
*1221 FILLER_0_19_57
*1222 FILLER_0_19_65
*1223 FILLER_0_19_77
*1224 FILLER_0_1_105
*1225 FILLER_0_1_111
*1226 FILLER_0_1_113
*1227 FILLER_0_1_125
*1228 FILLER_0_1_137
*1229 FILLER_0_1_149
*1230 FILLER_0_1_15
*1231 FILLER_0_1_161
*1232 FILLER_0_1_167
*1233 FILLER_0_1_169
*1234 FILLER_0_1_181
*1235 FILLER_0_1_193
*1236 FILLER_0_1_205
*1237 FILLER_0_1_217
*1238 FILLER_0_1_223
*1239 FILLER_0_1_225
*1240 FILLER_0_1_237
*1241 FILLER_0_1_249
*1242 FILLER_0_1_261
*1243 FILLER_0_1_27
*1244 FILLER_0_1_273
*1245 FILLER_0_1_279
*1246 FILLER_0_1_281
*1247 FILLER_0_1_293
*1248 FILLER_0_1_3
*1249 FILLER_0_1_305
*1250 FILLER_0_1_317
*1251 FILLER_0_1_329
*1252 FILLER_0_1_39
*1253 FILLER_0_1_51
*1254 FILLER_0_1_55
*1255 FILLER_0_1_57
*1256 FILLER_0_1_69
*1257 FILLER_0_1_81
*1258 FILLER_0_1_93
*1259 FILLER_0_20_115
*1260 FILLER_0_20_188
*1261 FILLER_0_20_192
*1262 FILLER_0_20_202
*1263 FILLER_0_20_219
*1264 FILLER_0_20_22
*1265 FILLER_0_20_231
*1266 FILLER_0_20_239
*1267 FILLER_0_20_248
*1268 FILLER_0_20_253
*1269 FILLER_0_20_261
*1270 FILLER_0_20_280
*1271 FILLER_0_20_288
*1272 FILLER_0_20_3
*1273 FILLER_0_20_304
*1274 FILLER_0_20_309
*1275 FILLER_0_20_324
*1276 FILLER_0_20_332
*1277 FILLER_0_20_57
*1278 FILLER_0_20_81
*1279 FILLER_0_21_105
*1280 FILLER_0_21_111
*1281 FILLER_0_21_113
*1282 FILLER_0_21_125
*1283 FILLER_0_21_133
*1284 FILLER_0_21_140
*1285 FILLER_0_21_149
*1286 FILLER_0_21_15
*1287 FILLER_0_21_161
*1288 FILLER_0_21_166
*1289 FILLER_0_21_180
*1290 FILLER_0_21_188
*1291 FILLER_0_21_225
*1292 FILLER_0_21_252
*1293 FILLER_0_21_260
*1294 FILLER_0_21_265
*1295 FILLER_0_21_278
*1296 FILLER_0_21_281
*1297 FILLER_0_21_293
*1298 FILLER_0_21_3
*1299 FILLER_0_21_305
*1300 FILLER_0_21_315
*1301 FILLER_0_21_327
*1302 FILLER_0_21_33
*1303 FILLER_0_21_38
*1304 FILLER_0_21_50
*1305 FILLER_0_21_57
*1306 FILLER_0_21_65
*1307 FILLER_0_21_69
*1308 FILLER_0_21_97
*1309 FILLER_0_22_105
*1310 FILLER_0_22_113
*1311 FILLER_0_22_122
*1312 FILLER_0_22_130
*1313 FILLER_0_22_152
*1314 FILLER_0_22_160
*1315 FILLER_0_22_188
*1316 FILLER_0_22_197
*1317 FILLER_0_22_212
*1318 FILLER_0_22_224
*1319 FILLER_0_22_246
*1320 FILLER_0_22_266
*1321 FILLER_0_22_275
*1322 FILLER_0_22_281
*1323 FILLER_0_22_295
*1324 FILLER_0_22_3
*1325 FILLER_0_22_314
*1326 FILLER_0_22_332
*1327 FILLER_0_22_37
*1328 FILLER_0_22_49
*1329 FILLER_0_22_61
*1330 FILLER_0_22_70
*1331 FILLER_0_22_81
*1332 FILLER_0_22_93
*1333 FILLER_0_23_11
*1334 FILLER_0_23_111
*1335 FILLER_0_23_113
*1336 FILLER_0_23_133
*1337 FILLER_0_23_142
*1338 FILLER_0_23_146
*1339 FILLER_0_23_157
*1340 FILLER_0_23_161
*1341 FILLER_0_23_17
*1342 FILLER_0_23_177
*1343 FILLER_0_23_188
*1344 FILLER_0_23_21
*1345 FILLER_0_23_217
*1346 FILLER_0_23_223
*1347 FILLER_0_23_225
*1348 FILLER_0_23_278
*1349 FILLER_0_23_297
*1350 FILLER_0_23_3
*1351 FILLER_0_23_301
*1352 FILLER_0_23_328
*1353 FILLER_0_23_33
*1354 FILLER_0_23_334
*1355 FILLER_0_23_45
*1356 FILLER_0_23_53
*1357 FILLER_0_23_63
*1358 FILLER_0_23_89
*1359 FILLER_0_23_95
*1360 FILLER_0_24_137
*1361 FILLER_0_24_188
*1362 FILLER_0_24_197
*1363 FILLER_0_24_223
*1364 FILLER_0_24_243
*1365 FILLER_0_24_251
*1366 FILLER_0_24_253
*1367 FILLER_0_24_257
*1368 FILLER_0_24_27
*1369 FILLER_0_24_278
*1370 FILLER_0_24_290
*1371 FILLER_0_24_3
*1372 FILLER_0_24_302
*1373 FILLER_0_24_309
*1374 FILLER_0_24_321
*1375 FILLER_0_24_333
*1376 FILLER_0_24_39
*1377 FILLER_0_24_66
*1378 FILLER_0_24_81
*1379 FILLER_0_24_85
*1380 FILLER_0_25_109
*1381 FILLER_0_25_11
*1382 FILLER_0_25_113
*1383 FILLER_0_25_125
*1384 FILLER_0_25_152
*1385 FILLER_0_25_160
*1386 FILLER_0_25_169
*1387 FILLER_0_25_218
*1388 FILLER_0_25_242
*1389 FILLER_0_25_254
*1390 FILLER_0_25_281
*1391 FILLER_0_25_293
*1392 FILLER_0_25_3
*1393 FILLER_0_25_305
*1394 FILLER_0_25_319
*1395 FILLER_0_25_331
*1396 FILLER_0_25_44
*1397 FILLER_0_25_57
*1398 FILLER_0_25_63
*1399 FILLER_0_25_73
*1400 FILLER_0_26_11
*1401 FILLER_0_26_111
*1402 FILLER_0_26_119
*1403 FILLER_0_26_136
*1404 FILLER_0_26_150
*1405 FILLER_0_26_16
*1406 FILLER_0_26_162
*1407 FILLER_0_26_168
*1408 FILLER_0_26_217
*1409 FILLER_0_26_228
*1410 FILLER_0_26_243
*1411 FILLER_0_26_269
*1412 FILLER_0_26_293
*1413 FILLER_0_26_3
*1414 FILLER_0_26_333
*1415 FILLER_0_26_49
*1416 FILLER_0_26_82
*1417 FILLER_0_27_107
*1418 FILLER_0_27_111
*1419 FILLER_0_27_113
*1420 FILLER_0_27_142
*1421 FILLER_0_27_163
*1422 FILLER_0_27_189
*1423 FILLER_0_27_22
*1424 FILLER_0_27_223
*1425 FILLER_0_27_225
*1426 FILLER_0_27_229
*1427 FILLER_0_27_233
*1428 FILLER_0_27_243
*1429 FILLER_0_27_255
*1430 FILLER_0_27_263
*1431 FILLER_0_27_275
*1432 FILLER_0_27_279
*1433 FILLER_0_27_3
*1434 FILLER_0_27_300
*1435 FILLER_0_27_334
*1436 FILLER_0_27_40
*1437 FILLER_0_27_52
*1438 FILLER_0_27_57
*1439 FILLER_0_27_95
*1440 FILLER_0_28_15
*1441 FILLER_0_28_156
*1442 FILLER_0_28_168
*1443 FILLER_0_28_185
*1444 FILLER_0_28_197
*1445 FILLER_0_28_213
*1446 FILLER_0_28_245
*1447 FILLER_0_28_251
*1448 FILLER_0_28_253
*1449 FILLER_0_28_27
*1450 FILLER_0_28_274
*1451 FILLER_0_28_286
*1452 FILLER_0_28_294
*1453 FILLER_0_28_3
*1454 FILLER_0_28_309
*1455 FILLER_0_28_334
*1456 FILLER_0_28_37
*1457 FILLER_0_28_49
*1458 FILLER_0_28_61
*1459 FILLER_0_28_73
*1460 FILLER_0_28_81
*1461 FILLER_0_28_85
*1462 FILLER_0_28_89
*1463 FILLER_0_29_106
*1464 FILLER_0_29_11
*1465 FILLER_0_29_113
*1466 FILLER_0_29_131
*1467 FILLER_0_29_16
*1468 FILLER_0_29_187
*1469 FILLER_0_29_195
*1470 FILLER_0_29_234
*1471 FILLER_0_29_276
*1472 FILLER_0_29_281
*1473 FILLER_0_29_293
*1474 FILLER_0_29_3
*1475 FILLER_0_29_313
*1476 FILLER_0_29_331
*1477 FILLER_0_29_51
*1478 FILLER_0_29_55
*1479 FILLER_0_29_57
*1480 FILLER_0_29_90
*1481 FILLER_0_29_98
*1482 FILLER_0_2_109
*1483 FILLER_0_2_121
*1484 FILLER_0_2_133
*1485 FILLER_0_2_139
*1486 FILLER_0_2_141
*1487 FILLER_0_2_15
*1488 FILLER_0_2_153
*1489 FILLER_0_2_165
*1490 FILLER_0_2_177
*1491 FILLER_0_2_189
*1492 FILLER_0_2_195
*1493 FILLER_0_2_197
*1494 FILLER_0_2_209
*1495 FILLER_0_2_221
*1496 FILLER_0_2_233
*1497 FILLER_0_2_245
*1498 FILLER_0_2_251
*1499 FILLER_0_2_253
*1500 FILLER_0_2_265
*1501 FILLER_0_2_27
*1502 FILLER_0_2_277
*1503 FILLER_0_2_289
*1504 FILLER_0_2_29
*1505 FILLER_0_2_3
*1506 FILLER_0_2_301
*1507 FILLER_0_2_307
*1508 FILLER_0_2_309
*1509 FILLER_0_2_321
*1510 FILLER_0_2_333
*1511 FILLER_0_2_41
*1512 FILLER_0_2_53
*1513 FILLER_0_2_65
*1514 FILLER_0_2_77
*1515 FILLER_0_2_83
*1516 FILLER_0_2_85
*1517 FILLER_0_2_97
*1518 FILLER_0_30_101
*1519 FILLER_0_30_113
*1520 FILLER_0_30_137
*1521 FILLER_0_30_150
*1522 FILLER_0_30_162
*1523 FILLER_0_30_170
*1524 FILLER_0_30_177
*1525 FILLER_0_30_189
*1526 FILLER_0_30_197
*1527 FILLER_0_30_214
*1528 FILLER_0_30_22
*1529 FILLER_0_30_232
*1530 FILLER_0_30_239
*1531 FILLER_0_30_251
*1532 FILLER_0_30_273
*1533 FILLER_0_30_293
*1534 FILLER_0_30_3
*1535 FILLER_0_30_325
*1536 FILLER_0_30_333
*1537 FILLER_0_30_44
*1538 FILLER_0_30_56
*1539 FILLER_0_30_64
*1540 FILLER_0_31_101
*1541 FILLER_0_31_109
*1542 FILLER_0_31_146
*1543 FILLER_0_31_15
*1544 FILLER_0_31_158
*1545 FILLER_0_31_166
*1546 FILLER_0_31_169
*1547 FILLER_0_31_181
*1548 FILLER_0_31_193
*1549 FILLER_0_31_233
*1550 FILLER_0_31_244
*1551 FILLER_0_31_252
*1552 FILLER_0_31_277
*1553 FILLER_0_31_284
*1554 FILLER_0_31_3
*1555 FILLER_0_31_330
*1556 FILLER_0_31_334
*1557 FILLER_0_31_39
*1558 FILLER_0_31_48
*1559 FILLER_0_31_57
*1560 FILLER_0_31_65
*1561 FILLER_0_31_69
*1562 FILLER_0_31_73
*1563 FILLER_0_31_89
*1564 FILLER_0_32_102
*1565 FILLER_0_32_110
*1566 FILLER_0_32_119
*1567 FILLER_0_32_123
*1568 FILLER_0_32_127
*1569 FILLER_0_32_15
*1570 FILLER_0_32_157
*1571 FILLER_0_32_169
*1572 FILLER_0_32_177
*1573 FILLER_0_32_184