*SPEF "ieee 1481-1999"
*DESIGN "tt_um_drops"
*DATE "08:55:35 Wednesday April 10, 2024"
*VENDOR "The OpenROAD Project"
*PROGRAM "OpenROAD"
*VERSION "0889970d1790a2617e69f253221b8bd7626e51dc"
*DESIGN_FLOW "NAME_SCOPE LOCAL" "PIN_CAP NONE"
*DIVIDER /
*DELIMITER :
*BUS_DELIMITER []
*T_UNIT 1 NS
*C_UNIT 1 PF
*R_UNIT 1 OHM
*L_UNIT 1 HENRY

*NAME_MAP
*3 clk
*4 ena
*5 rst_n
*6 ui_in[0]
*7 ui_in[1]
*8 ui_in[2]
*9 ui_in[3]
*10 ui_in[4]
*11 ui_in[5]
*12 ui_in[6]
*13 ui_in[7]
*14 uio_in[0]
*15 uio_in[1]
*16 uio_in[2]
*17 uio_in[3]
*18 uio_in[4]
*19 uio_in[5]
*20 uio_in[6]
*21 uio_in[7]
*22 net5
*23 net6
*24 net7
*25 net8
*26 net9
*27 net10
*28 net11
*29 net12
*30 uio_out[0]
*31 uio_out[1]
*32 uio_out[2]
*33 uio_out[3]
*34 uio_out[4]
*35 uio_out[5]
*36 uio_out[6]
*37 uio_out[7]
*38 uo_out[0]
*39 uo_out[1]
*40 uo_out[2]
*41 uo_out[3]
*42 uo_out[4]
*43 uo_out[5]
*44 uo_out[6]
*45 uo_out[7]
*46 State\[0\]
*47 State\[1\]
*48 State\[2\]
*49 _0000_
*50 _0008_
*51 _0009_
*52 _0010_
*53 _0011_
*54 _0012_
*55 _0013_
*56 _0014_
*57 _0015_
*58 _0016_
*59 _0017_
*60 _0018_
*61 _0019_
*62 _0020_
*63 _0021_
*64 _0022_
*65 _0023_
*66 _0024_
*67 _0025_
*68 _0026_
*69 _0027_
*70 _0028_
*71 _0029_
*72 _0030_
*73 _0031_
*74 _0032_
*75 _0033_
*76 _0034_
*77 _0035_
*78 _0036_
*79 _0037_
*80 _0038_
*81 _0039_
*82 _0040_
*83 _0041_
*84 _0042_
*85 _0043_
*86 _0044_
*87 _0045_
*88 _0046_
*89 _0047_
*90 _0048_
*91 _0049_
*92 _0050_
*93 _0051_
*94 _0052_
*95 _0053_
*96 _0054_
*97 _0055_
*98 _0056_
*99 _0057_
*100 _0058_
*101 _0059_
*102 _0060_
*103 _0061_
*104 _0062_
*105 _0063_
*106 _0064_
*107 _0065_
*108 _0066_
*109 _0067_
*110 _0068_
*111 _0069_
*112 _0070_
*113 _0071_
*114 _0072_
*115 _0073_
*116 _0074_
*117 _0075_
*118 _0076_
*119 _0077_
*120 _0078_
*121 _0079_
*122 _0080_
*123 _0081_
*124 _0082_
*125 _0083_
*126 _0084_
*127 _0085_
*128 _0086_
*129 _0087_
*130 _0088_
*131 _0089_
*132 _0090_
*133 _0091_
*134 _0092_
*135 _0093_
*136 _0094_
*137 _0095_
*138 _0096_
*139 _0097_
*140 _0098_
*141 _0099_
*142 _0100_
*143 _0101_
*144 _0102_
*145 _0103_
*146 _0104_
*147 _0105_
*148 _0106_
*149 _0107_
*150 _0108_
*151 _0109_
*152 _0110_
*153 _0111_
*154 _0112_
*155 _0113_
*156 _0114_
*157 _0115_
*158 _0116_
*159 _0117_
*160 _0118_
*161 _0119_
*162 _0120_
*163 _0121_
*164 _0122_
*165 _0123_
*166 _0124_
*167 _0125_
*168 _0126_
*169 _0127_
*170 _0128_
*171 _0129_
*172 _0130_
*173 _0131_
*174 _0132_
*175 _0133_
*176 _0134_
*177 _0135_
*178 _0136_
*179 _0137_
*180 _0138_
*181 _0139_
*182 _0140_
*183 _0141_
*184 _0142_
*185 _0143_
*186 _0144_
*187 _0145_
*188 _0146_
*189 _0147_
*190 _0148_
*191 _0149_
*192 _0150_
*193 _0151_
*194 _0152_
*195 _0153_
*196 _0154_
*197 _0155_
*198 _0156_
*199 _0157_
*200 _0158_
*201 _0159_
*202 _0160_
*203 _0161_
*204 _0162_
*205 _0163_
*206 _0164_
*207 _0165_
*208 _0166_
*209 _0167_
*210 _0168_
*211 _0169_
*212 _0170_
*213 _0171_
*214 _0172_
*215 _0173_
*216 _0174_
*217 _0175_
*218 _0176_
*219 _0177_
*220 _0178_
*221 _0179_
*222 _0180_
*223 _0181_
*224 _0182_
*225 _0183_
*226 _0184_
*227 _0185_
*228 _0186_
*229 _0187_
*230 _0188_
*231 _0189_
*232 _0190_
*233 _0191_
*234 _0192_
*235 _0193_
*236 _0194_
*237 _0195_
*238 _0196_
*239 _0197_
*240 _0198_
*241 _0199_
*242 _0200_
*243 _0201_
*244 _0202_
*245 _0203_
*246 _0204_
*247 _0205_
*248 _0206_
*249 _0207_
*250 _0208_
*251 _0209_
*252 _0210_
*253 _0211_
*254 _0212_
*255 _0213_
*256 _0214_
*257 _0215_
*258 _0216_
*259 _0217_
*260 _0218_
*261 _0219_
*262 _0220_
*263 _0221_
*264 _0222_
*265 _0223_
*266 _0224_
*267 _0225_
*268 _0226_
*269 _0227_
*270 _0228_
*271 _0229_
*272 _0230_
*273 _0231_
*274 _0232_
*275 _0233_
*276 _0234_
*277 _0235_
*278 _0236_
*279 _0237_
*280 _0238_
*281 _0239_
*282 _0240_
*283 _0241_
*284 _0242_
*285 _0243_
*286 _0244_
*287 _0245_
*288 _0246_
*289 _0247_
*290 _0248_
*291 _0249_
*292 _0250_
*293 _0251_
*294 _0252_
*295 _0253_
*296 _0254_
*297 _0255_
*298 _0256_
*299 _0257_
*300 _0258_
*301 _0259_
*302 _0260_
*303 _0261_
*304 _0262_
*305 _0263_
*306 _0264_
*307 _0265_
*308 _0266_
*309 _0267_
*310 _0268_
*311 _0269_
*312 _0270_
*313 _0271_
*314 _0272_
*315 _0273_
*316 _0274_
*317 _0275_
*318 _0276_
*319 _0277_
*320 _0278_
*321 _0279_
*322 _0280_
*323 _0281_
*324 _0282_
*325 _0283_
*326 _0284_
*327 _0285_
*328 _0286_
*329 _0287_
*330 _0288_
*331 _0289_
*332 _0290_
*333 _0291_
*334 _0292_
*335 _0293_
*336 _0294_
*337 _0295_
*338 _0296_
*339 _0297_
*340 _0298_
*341 _0299_
*342 _0300_
*343 _0301_
*344 _0302_
*345 _0303_
*346 _0304_
*347 _0305_
*348 _0306_
*349 _0307_
*350 _0308_
*351 _0309_
*352 _0310_
*353 _0311_
*354 _0312_
*355 _0313_
*356 _0314_
*357 _0315_
*358 _0316_
*359 _0317_
*360 _0318_
*361 _0319_
*362 _0320_
*363 _0321_
*364 _0322_
*365 _0323_
*366 _0324_
*367 _0325_
*368 _0326_
*369 _0327_
*370 _0328_
*371 _0329_
*372 _0330_
*373 _0331_
*374 _0332_
*375 _0333_
*376 _0334_
*377 _0335_
*378 _0336_
*379 _0337_
*380 _0338_
*381 _0339_
*382 _0340_
*383 _0341_
*384 _0342_
*385 _0343_
*386 _0344_
*387 _0345_
*388 _0346_
*389 _0347_
*390 _0348_
*391 _0349_
*392 _0350_
*393 _0351_
*394 _0352_
*395 _0353_
*396 _0354_
*397 _0355_
*398 _0356_
*399 _0357_
*400 _0358_
*401 _0359_
*402 _0360_
*403 _0361_
*404 _0362_
*405 _0363_
*406 _0364_
*407 _0365_
*408 _0366_
*409 _0367_
*410 _0368_
*411 _0369_
*412 _0370_
*413 _0371_
*414 _0372_
*415 _0373_
*416 _0374_
*417 _0375_
*418 _0376_
*419 _0377_
*420 _0378_
*421 _0379_
*422 _0380_
*423 _0381_
*424 _0382_
*425 _0383_
*426 _0384_
*427 _0385_
*428 _0386_
*429 _0387_
*430 _0388_
*431 _0389_
*432 _0390_
*433 _0391_
*434 _0392_
*435 _0393_
*436 _0394_
*437 _0395_
*438 _0396_
*439 _0397_
*440 _0398_
*441 _0399_
*442 _0400_
*443 _0401_
*444 _0402_
*445 _0403_
*446 _0404_
*447 _0405_
*448 _0406_
*449 _0407_
*450 _0408_
*451 _0409_
*452 _0410_
*453 _0411_
*454 _0412_
*455 _0413_
*456 _0414_
*457 _0415_
*458 _0416_
*459 _0417_
*460 _0418_
*461 _0419_
*462 _0420_
*463 _0421_
*464 _0422_
*465 _0423_
*466 _0424_
*467 _0425_
*468 _0426_
*469 _0427_
*470 _0428_
*471 _0429_
*472 _0430_
*473 _0431_
*474 _0432_
*475 _0433_
*476 _0434_
*477 _0435_
*478 _0436_
*479 _0437_
*480 _0438_
*481 _0439_
*482 _0440_
*483 _0441_
*484 _0442_
*485 _0443_
*486 _0444_
*487 _0445_
*488 _0446_
*489 _0447_
*490 _0448_
*491 _0449_
*492 _0450_
*493 _0451_
*494 _0452_
*495 _0453_
*496 _0454_
*497 _0455_
*498 _0456_
*499 _0457_
*500 _0458_
*501 _0459_
*502 _0460_
*503 _0461_
*504 _0462_
*505 _0463_
*506 _0464_
*507 _0465_
*508 _0466_
*509 _0467_
*510 _0468_
*511 _0469_
*512 _0470_
*513 _0471_
*514 _0472_
*515 _0473_
*516 _0474_
*517 _0475_
*518 _0476_
*519 _0477_
*520 _0478_
*521 _0479_
*522 _0480_
*523 _0481_
*524 _0482_
*525 _0483_
*526 _0484_
*527 _0485_
*528 _0486_
*529 _0487_
*530 _0488_
*531 _0489_
*532 _0490_
*533 _0491_
*534 _0492_
*535 _0493_
*536 _0494_
*537 _0495_
*538 _0496_
*539 _0497_
*540 _0498_
*541 _0499_
*542 _0500_
*543 _0501_
*544 _0502_
*545 _0503_
*546 _0504_
*547 _0505_
*548 _0506_
*549 _0507_
*550 _0508_
*551 _0509_
*552 _0510_
*553 _0511_
*554 _0512_
*555 _0513_
*556 _0514_
*557 _0515_
*558 _0516_
*559 _0517_
*560 _0518_
*561 _0519_
*562 _0520_
*563 _0521_
*564 _0522_
*565 _0523_
*566 _0524_
*567 _0525_
*568 _0526_
*569 _0527_
*570 _0528_
*571 _0529_
*572 _0530_
*573 _0531_
*574 _0532_
*575 _0533_
*576 _0534_
*577 _0535_
*578 _0536_
*579 _0537_
*580 _0538_
*581 _0539_
*582 _0540_
*583 _0541_
*584 _0542_
*585 _0543_
*586 _0544_
*587 _0545_
*588 _0546_
*589 _0547_
*590 _0548_
*591 _0549_
*592 _0550_
*593 _0551_
*594 _0552_
*595 _0553_
*596 _0554_
*597 _0555_
*598 _0556_
*599 _0557_
*600 _0558_
*601 _0559_
*602 _0560_
*603 _0561_
*604 _0562_
*605 _0563_
*606 _0564_
*607 _0565_
*608 _0566_
*609 _0567_
*610 _0568_
*611 _0569_
*612 _0570_
*613 _0571_
*614 _0572_
*615 _0573_
*616 _0574_
*617 _0575_
*618 action_dut\.bar_pos\[0\]
*619 action_dut\.bar_pos\[1\]
*620 action_dut\.bar_pos\[2\]
*621 action_dut\.bar_pos\[3\]
*622 action_dut\.bar_pos\[4\]
*623 action_dut\.bar_pos\[5\]
*624 action_dut\.bar_pos\[6\]
*625 action_dut\.bar_pos\[7\]
*626 action_dut\.change_counter\[0\]
*627 action_dut\.change_counter\[1\]
*628 action_dut\.change_counter\[2\]
*629 action_dut\.change_counter\[3\]
*630 action_dut\.dead
*631 action_dut\.drop_height\[0\]
*632 action_dut\.drop_height\[1\]
*633 action_dut\.drop_height\[2\]
*634 action_dut\.drop_height\[3\]
*635 action_dut\.drop_height\[4\]
*636 action_dut\.drop_height\[5\]
*637 action_dut\.drop_height\[6\]
*638 action_dut\.drop_height\[7\]
*639 action_dut\.drop_pos\[0\]
*640 action_dut\.drop_pos\[1\]
*641 action_dut\.drop_pos\[2\]
*642 action_dut\.drop_pos\[3\]
*643 action_dut\.drop_pos\[4\]
*644 action_dut\.drop_pos\[5\]
*645 action_dut\.drop_pos\[6\]
*646 action_dut\.drop_pos\[7\]
*647 action_dut\.e_act_i
*648 action_dut\.left_i
*649 action_dut\.life_counter\[0\]
*650 action_dut\.life_counter\[1\]
*651 action_dut\.life_counter\[2\]
*652 action_dut\.life_counter\[3\]
*653 action_dut\.life_counter\[4\]
*654 action_dut\.life_counter\[5\]
*655 action_dut\.life_counter\[6\]
*656 action_dut\.life_counter\[7\]
*657 action_dut\.matrix\[0\]
*658 action_dut\.matrix\[10\]
*659 action_dut\.matrix\[11\]
*660 action_dut\.matrix\[12\]
*661 action_dut\.matrix\[13\]
*662 action_dut\.matrix\[14\]
*663 action_dut\.matrix\[15\]
*664 action_dut\.matrix\[16\]
*665 action_dut\.matrix\[17\]
*666 action_dut\.matrix\[18\]
*667 action_dut\.matrix\[19\]
*668 action_dut\.matrix\[1\]
*669 action_dut\.matrix\[20\]
*670 action_dut\.matrix\[21\]
*671 action_dut\.matrix\[22\]
*672 action_dut\.matrix\[23\]
*673 action_dut\.matrix\[24\]
*674 action_dut\.matrix\[25\]
*675 action_dut\.matrix\[26\]
*676 action_dut\.matrix\[27\]
*677 action_dut\.matrix\[28\]
*678 action_dut\.matrix\[29\]
*679 action_dut\.matrix\[2\]
*680 action_dut\.matrix\[30\]
*681 action_dut\.matrix\[31\]
*682 action_dut\.matrix\[32\]
*683 action_dut\.matrix\[33\]
*684 action_dut\.matrix\[34\]
*685 action_dut\.matrix\[35\]
*686 action_dut\.matrix\[36\]
*687 action_dut\.matrix\[37\]
*688 action_dut\.matrix\[38\]
*689 action_dut\.matrix\[39\]
*690 action_dut\.matrix\[3\]
*691 action_dut\.matrix\[40\]
*692 action_dut\.matrix\[41\]
*693 action_dut\.matrix\[42\]
*694 action_dut\.matrix\[43\]
*695 action_dut\.matrix\[44\]
*696 action_dut\.matrix\[45\]
*697 action_dut\.matrix\[46\]
*698 action_dut\.matrix\[47\]
*699 action_dut\.matrix\[48\]
*700 action_dut\.matrix\[49\]
*701 action_dut\.matrix\[4\]
*702 action_dut\.matrix\[50\]
*703 action_dut\.matrix\[51\]
*704 action_dut\.matrix\[52\]
*705 action_dut\.matrix\[53\]
*706 action_dut\.matrix\[54\]
*707 action_dut\.matrix\[55\]
*708 action_dut\.matrix\[56\]
*709 action_dut\.matrix\[57\]
*710 action_dut\.matrix\[58\]
*711 action_dut\.matrix\[59\]
*712 action_dut\.matrix\[5\]
*713 action_dut\.matrix\[60\]
*714 action_dut\.matrix\[61\]
*715 action_dut\.matrix\[62\]
*716 action_dut\.matrix\[63\]
*717 action_dut\.matrix\[6\]
*718 action_dut\.matrix\[7\]
*719 action_dut\.matrix\[8\]
*720 action_dut\.matrix\[9\]
*721 action_dut\.pos_counter\[0\]
*722 action_dut\.pos_counter\[1\]
*723 action_dut\.pos_counter\[2\]
*724 action_dut\.pos_counter\[3\]
*725 action_dut\.pos_counter\[4\]
*726 action_dut\.reset_i
*727 action_dut\.right_i
*728 clknet_0_clk
*729 clknet_4_0_0_clk
*730 clknet_4_10_0_clk
*731 clknet_4_11_0_clk
*732 clknet_4_12_0_clk
*733 clknet_4_13_0_clk
*734 clknet_4_14_0_clk
*735 clknet_4_15_0_clk
*736 clknet_4_1_0_clk
*737 clknet_4_2_0_clk
*738 clknet_4_3_0_clk
*739 clknet_4_4_0_clk
*740 clknet_4_5_0_clk
*741 clknet_4_6_0_clk
*742 clknet_4_7_0_clk
*743 clknet_4_8_0_clk
*744 clknet_4_9_0_clk
*745 display_dut\.clk_new\[0\]
*746 display_dut\.clk_new\[10\]
*747 display_dut\.clk_new\[11\]
*748 display_dut\.clk_new\[1\]
*749 display_dut\.clk_new\[2\]
*750 display_dut\.clk_new\[3\]
*751 display_dut\.clk_new\[4\]
*752 display_dut\.clk_new\[5\]
*753 display_dut\.clk_new\[6\]
*754 display_dut\.clk_new\[7\]
*755 display_dut\.clk_new\[8\]
*756 display_dut\.clk_new\[9\]
*757 display_dut\.d_disp
*758 display_dut\.e_disp
*759 display_dut\.row_d\[0\]
*760 display_dut\.row_d\[1\]
*761 display_dut\.row_d\[2\]
*762 display_dut\.row_d\[3\]
*763 display_dut\.row_d\[4\]
*764 display_dut\.row_d\[5\]
*765 display_dut\.row_d\[6\]
*766 display_dut\.row_d\[7\]
*767 display_dut\.row_d\[8\]
*768 get_input_dut\.e_inp
*769 get_input_dut\.left_cr\[0\]
*770 get_input_dut\.left_cr\[1\]
*771 get_input_dut\.left_cr\[2\]
*772 get_input_dut\.left_cr\[3\]
*773 get_input_dut\.right_cr\[0\]
*774 get_input_dut\.right_cr\[1\]
*775 get_input_dut\.right_cr\[2\]
*776 get_input_dut\.right_cr\[3\]
*777 net1
*778 net13
*779 net14
*780 net15
*781 net16
*782 net17
*783 net18
*784 net19
*785 net2
*786 net20
*787 net21
*788 net22
*789 net23
*790 net24
*791 net25
*792 net26
*793 net27
*794 net28
*795 net29
*796 net3
*797 net30
*798 net31
*799 net32
*800 net33
*801 net34
*802 net35
*803 net36
*804 net37
*805 net38
*806 net39
*807 net4
*808 net40
*809 net41
*810 net42
*811 net43
*812 net44
*813 net45
*814 net46
*815 net47
*816 net48
*817 net49
*818 net50
*819 net51
*820 net52
*821 net53
*822 net54
*823 net55
*824 net56
*825 net57
*826 net58
*827 net59
*828 net60
*829 net61
*830 net62
*831 net63
*832 net64
*833 net65
*834 net66
*835 net67
*836 net68
*837 net69
*838 net70
*839 net71
*840 net72
*841 net73
*842 net74
*843 net75
*844 net76
*845 net77
*846 net78
*847 net79
*848 net80
*849 net81
*850 net82
*851 net83
*852 net84
*853 net85
*854 net86
*855 net87
*856 net88
*857 net89
*858 net90
*859 net91
*860 net92
*861 net93
*862 net94
*863 net95
*864 FILLER_0_0_109
*865 FILLER_0_0_113
*866 FILLER_0_0_125
*867 FILLER_0_0_137
*868 FILLER_0_0_141
*869 FILLER_0_0_15
*870 FILLER_0_0_153
*871 FILLER_0_0_165
*872 FILLER_0_0_169
*873 FILLER_0_0_181
*874 FILLER_0_0_193
*875 FILLER_0_0_197
*876 FILLER_0_0_209
*877 FILLER_0_0_221
*878 FILLER_0_0_225
*879 FILLER_0_0_237
*880 FILLER_0_0_249
*881 FILLER_0_0_253
*882 FILLER_0_0_265
*883 FILLER_0_0_27
*884 FILLER_0_0_277
*885 FILLER_0_0_281
*886 FILLER_0_0_29
*887 FILLER_0_0_293
*888 FILLER_0_0_3
*889 FILLER_0_0_305
*890 FILLER_0_0_309
*891 FILLER_0_0_321
*892 FILLER_0_0_333
*893 FILLER_0_0_41
*894 FILLER_0_0_53
*895 FILLER_0_0_57
*896 FILLER_0_0_69
*897 FILLER_0_0_81
*898 FILLER_0_0_85
*899 FILLER_0_0_97
*900 FILLER_0_10_118
*901 FILLER_0_10_130
*902 FILLER_0_10_139
*903 FILLER_0_10_145
*904 FILLER_0_10_157
*905 FILLER_0_10_193
*906 FILLER_0_10_197
*907 FILLER_0_10_206
*908 FILLER_0_10_236
*909 FILLER_0_10_24
*910 FILLER_0_10_251
*911 FILLER_0_10_253
*912 FILLER_0_10_265
*913 FILLER_0_10_278
*914 FILLER_0_10_29
*915 FILLER_0_10_292
*916 FILLER_0_10_3
*917 FILLER_0_10_304
*918 FILLER_0_10_309
*919 FILLER_0_10_327
*920 FILLER_0_10_33
*921 FILLER_0_10_334
*922 FILLER_0_10_44
*923 FILLER_0_10_7
*924 FILLER_0_10_70
*925 FILLER_0_10_82
*926 FILLER_0_10_85
*927 FILLER_0_10_89
*928 FILLER_0_11_113
*929 FILLER_0_11_125
*930 FILLER_0_11_148
*931 FILLER_0_11_160
*932 FILLER_0_11_169
*933 FILLER_0_11_189
*934 FILLER_0_11_201
*935 FILLER_0_11_210
*936 FILLER_0_11_217
*937 FILLER_0_11_223
*938 FILLER_0_11_225
*939 FILLER_0_11_249
*940 FILLER_0_11_261
*941 FILLER_0_11_271
*942 FILLER_0_11_297
*943 FILLER_0_11_3
*944 FILLER_0_11_325
*945 FILLER_0_11_334
*946 FILLER_0_11_52
*947 FILLER_0_11_78
*948 FILLER_0_12_113
*949 FILLER_0_12_125
*950 FILLER_0_12_149
*951 FILLER_0_12_161
*952 FILLER_0_12_168
*953 FILLER_0_12_175
*954 FILLER_0_12_179
*955 FILLER_0_12_188
*956 FILLER_0_12_226
*957 FILLER_0_12_246
*958 FILLER_0_12_253
*959 FILLER_0_12_261
*960 FILLER_0_12_27
*961 FILLER_0_12_29
*962 FILLER_0_12_3
*963 FILLER_0_12_303
*964 FILLER_0_12_334
*965 FILLER_0_12_53
*966 FILLER_0_12_59
*967 FILLER_0_12_9
*968 FILLER_0_12_93
*969 FILLER_0_13_101
*970 FILLER_0_13_110
*971 FILLER_0_13_113
*972 FILLER_0_13_15
*973 FILLER_0_13_155
*974 FILLER_0_13_161
*975 FILLER_0_13_169
*976 FILLER_0_13_199
*977 FILLER_0_13_207
*978 FILLER_0_13_239
*979 FILLER_0_13_251
*980 FILLER_0_13_257
*981 FILLER_0_13_27
*982 FILLER_0_13_278
*983 FILLER_0_13_281
*984 FILLER_0_13_295
*985 FILLER_0_13_3
*986 FILLER_0_13_304
*987 FILLER_0_13_322
*988 FILLER_0_13_334
*989 FILLER_0_13_39
*990 FILLER_0_13_51
*991 FILLER_0_13_55
*992 FILLER_0_13_57
*993 FILLER_0_13_90
*994 FILLER_0_14_106
*995 FILLER_0_14_118
*996 FILLER_0_14_164
*997 FILLER_0_14_168
*998 FILLER_0_14_197
*999 FILLER_0_14_205
*1000 FILLER_0_14_213
*1001 FILLER_0_14_218
*1002 FILLER_0_14_230
*1003 FILLER_0_14_238
*1004 FILLER_0_14_253
*1005 FILLER_0_14_27
*1006 FILLER_0_14_271
*1007 FILLER_0_14_278
*1008 FILLER_0_14_286
*1009 FILLER_0_14_29
*1010 FILLER_0_14_291
*1011 FILLER_0_14_3
*1012 FILLER_0_14_303
*1013 FILLER_0_14_307
*1014 FILLER_0_14_322
*1015 FILLER_0_14_41
*1016 FILLER_0_14_53
*1017 FILLER_0_14_65
*1018 FILLER_0_14_77
*1019 FILLER_0_14_83
*1020 FILLER_0_14_85
*1021 FILLER_0_14_89
*1022 FILLER_0_15_101
*1023 FILLER_0_15_109
*1024 FILLER_0_15_113
*1025 FILLER_0_15_136
*1026 FILLER_0_15_145
*1027 FILLER_0_15_161
*1028 FILLER_0_15_167
*1029 FILLER_0_15_169
*1030 FILLER_0_15_198
*1031 FILLER_0_15_206
*1032 FILLER_0_15_259
*1033 FILLER_0_15_263
*1034 FILLER_0_15_272
*1035 FILLER_0_15_297
*1036 FILLER_0_15_3
*1037 FILLER_0_15_32
*1038 FILLER_0_15_60
*1039 FILLER_0_15_7
*1040 FILLER_0_15_84
*1041 FILLER_0_15_92
*1042 FILLER_0_16_108
*1043 FILLER_0_16_11
*1044 FILLER_0_16_163
*1045 FILLER_0_16_183
*1046 FILLER_0_16_195
*1047 FILLER_0_16_197
*1048 FILLER_0_16_217
*1049 FILLER_0_16_223
*1050 FILLER_0_16_228
*1051 FILLER_0_16_232
*1052 FILLER_0_16_242
*1053 FILLER_0_16_251
*1054 FILLER_0_16_258
*1055 FILLER_0_16_27
*1056 FILLER_0_16_289
*1057 FILLER_0_16_3
*1058 FILLER_0_16_333
*1059 FILLER_0_16_62
*1060 FILLER_0_16_69
*1061 FILLER_0_16_82
*1062 FILLER_0_16_85
*1063 FILLER_0_17_118
*1064 FILLER_0_17_15
*1065 FILLER_0_17_164
*1066 FILLER_0_17_174
*1067 FILLER_0_17_183
*1068 FILLER_0_17_195
*1069 FILLER_0_17_207
*1070 FILLER_0_17_219
*1071 FILLER_0_17_223
*1072 FILLER_0_17_225
*1073 FILLER_0_17_237
*1074 FILLER_0_17_251
*1075 FILLER_0_17_278
*1076 FILLER_0_17_292
*1077 FILLER_0_17_3
*1078 FILLER_0_17_300
*1079 FILLER_0_17_332
*1080 FILLER_0_17_34
*1081 FILLER_0_17_46
*1082 FILLER_0_17_54
*1083 FILLER_0_17_57
*1084 FILLER_0_17_85
*1085 FILLER_0_18_111
*1086 FILLER_0_18_123
*1087 FILLER_0_18_131
*1088 FILLER_0_18_15
*1089 FILLER_0_18_179
*1090 FILLER_0_18_190
*1091 FILLER_0_18_204
*1092 FILLER_0_18_216
*1093 FILLER_0_18_228
*1094 FILLER_0_18_23
*1095 FILLER_0_18_240
*1096 FILLER_0_18_283
*1097 FILLER_0_18_29
*1098 FILLER_0_18_295
*1099 FILLER_0_18_3
*1100 FILLER_0_18_307
*1101 FILLER_0_18_309
*1102 FILLER_0_18_322
*1103 FILLER_0_18_334
*1104 FILLER_0_18_35
*1105 FILLER_0_18_47
*1106 FILLER_0_18_83
*1107 FILLER_0_18_85
*1108 FILLER_0_18_93
*1109 FILLER_0_19_116
*1110 FILLER_0_19_128
*1111 FILLER_0_19_156
*1112 FILLER_0_19_174
*1113 FILLER_0_19_223
*1114 FILLER_0_19_246
*1115 FILLER_0_19_261
*1116 FILLER_0_19_265
*1117 FILLER_0_19_27
*1118 FILLER_0_19_279
*1119 FILLER_0_19_281
*1120 FILLER_0_19_293
*1121 FILLER_0_19_3
*1122 FILLER_0_19_305
*1123 FILLER_0_19_31
*1124 FILLER_0_19_323
*1125 FILLER_0_19_332
*1126 FILLER_0_19_39
*1127 FILLER_0_19_51
*1128 FILLER_0_19_55
*1129 FILLER_0_19_57
*1130 FILLER_0_19_68
*1131 FILLER_0_19_88
*1132 FILLER_0_1_105
*1133 FILLER_0_1_111
*1134 FILLER_0_1_113
*1135 FILLER_0_1_125
*1136 FILLER_0_1_137
*1137 FILLER_0_1_149
*1138 FILLER_0_1_15
*1139 FILLER_0_1_161
*1140 FILLER_0_1_167
*1141 FILLER_0_1_169
*1142 FILLER_0_1_181
*1143 FILLER_0_1_193
*1144 FILLER_0_1_205
*1145 FILLER_0_1_217
*1146 FILLER_0_1_223
*1147 FILLER_0_1_225
*1148 FILLER_0_1_237
*1149 FILLER_0_1_249
*1150 FILLER_0_1_261
*1151 FILLER_0_1_27
*1152 FILLER_0_1_273
*1153 FILLER_0_1_279
*1154 FILLER_0_1_281
*1155 FILLER_0_1_293
*1156 FILLER_0_1_3
*1157 FILLER_0_1_305
*1158 FILLER_0_1_317
*1159 FILLER_0_1_329
*1160 FILLER_0_1_39
*1161 FILLER_0_1_51
*1162 FILLER_0_1_55
*1163 FILLER_0_1_57
*1164 FILLER_0_1_69
*1165 FILLER_0_1_81
*1166 FILLER_0_1_93
*1167 FILLER_0_20_123
*1168 FILLER_0_20_141
*1169 FILLER_0_20_155
*1170 FILLER_0_20_163
*1171 FILLER_0_20_180
*1172 FILLER_0_20_191
*1173 FILLER_0_20_195
*1174 FILLER_0_20_212
*1175 FILLER_0_20_218
*1176 FILLER_0_20_233
*1177 FILLER_0_20_24
*1178 FILLER_0_20_245
*1179 FILLER_0_20_251
*1180 FILLER_0_20_288
*1181 FILLER_0_20_3
*1182 FILLER_0_20_300
*1183 FILLER_0_20_333
*1184 FILLER_0_20_37
*1185 FILLER_0_20_44
*1186 FILLER_0_20_56
*1187 FILLER_0_20_77
*1188 FILLER_0_20_83
*1189 FILLER_0_20_85
*1190 FILLER_0_21_118
*1191 FILLER_0_21_149
*1192 FILLER_0_21_169
*1193 FILLER_0_21_199
*1194 FILLER_0_21_213
*1195 FILLER_0_21_221
*1196 FILLER_0_21_225
*1197 FILLER_0_21_237
*1198 FILLER_0_21_241
*1199 FILLER_0_21_25
*1200 FILLER_0_21_276
*1201 FILLER_0_21_281
*1202 FILLER_0_21_289
*1203 FILLER_0_21_295
*1204 FILLER_0_21_3
*1205 FILLER_0_21_331
*1206 FILLER_0_21_48
*1207 FILLER_0_21_85
*1208 FILLER_0_21_89
*1209 FILLER_0_22_112
*1210 FILLER_0_22_124
*1211 FILLER_0_22_165
*1212 FILLER_0_22_187
*1213 FILLER_0_22_195
*1214 FILLER_0_22_205
*1215 FILLER_0_22_230
*1216 FILLER_0_22_242
*1217 FILLER_0_22_250
*1218 FILLER_0_22_262
*1219 FILLER_0_22_290
*1220 FILLER_0_22_3
*1221 FILLER_0_22_309
*1222 FILLER_0_22_331
*1223 FILLER_0_22_45
*1224 FILLER_0_22_53
*1225 FILLER_0_22_75
*1226 FILLER_0_22_83
*1227 FILLER_0_22_85
*1228 FILLER_0_23_103
*1229 FILLER_0_23_110
*1230 FILLER_0_23_120
*1231 FILLER_0_23_132
*1232 FILLER_0_23_149
*1233 FILLER_0_23_15
*1234 FILLER_0_23_161
*1235 FILLER_0_23_167
*1236 FILLER_0_23_21
*1237 FILLER_0_23_223
*1238 FILLER_0_23_234
*1239 FILLER_0_23_246
*1240 FILLER_0_23_273
*1241 FILLER_0_23_279
*1242 FILLER_0_23_281
*1243 FILLER_0_23_293
*1244 FILLER_0_23_299
*1245 FILLER_0_23_3
*1246 FILLER_0_23_30
*1247 FILLER_0_23_311
*1248 FILLER_0_23_319
*1249 FILLER_0_23_331
*1250 FILLER_0_23_39
*1251 FILLER_0_23_51
*1252 FILLER_0_23_55
*1253 FILLER_0_23_57
*1254 FILLER_0_23_68
*1255 FILLER_0_23_74
*1256 FILLER_0_23_91
*1257 FILLER_0_24_121
*1258 FILLER_0_24_133
*1259 FILLER_0_24_139
*1260 FILLER_0_24_156
*1261 FILLER_0_24_168
*1262 FILLER_0_24_195
*1263 FILLER_0_24_197
*1264 FILLER_0_24_204
*1265 FILLER_0_24_210
*1266 FILLER_0_24_241
*1267 FILLER_0_24_253
*1268 FILLER_0_24_26
*1269 FILLER_0_24_282
*1270 FILLER_0_24_294
*1271 FILLER_0_24_3
*1272 FILLER_0_24_305
*1273 FILLER_0_24_315
*1274 FILLER_0_24_324
*1275 FILLER_0_24_332
*1276 FILLER_0_24_36
*1277 FILLER_0_24_48
*1278 FILLER_0_24_66
*1279 FILLER_0_24_74
*1280 FILLER_0_24_9
*1281 FILLER_0_24_99
*1282 FILLER_0_25_118
*1283 FILLER_0_25_124
*1284 FILLER_0_25_132
*1285 FILLER_0_25_165
*1286 FILLER_0_25_169
*1287 FILLER_0_25_180
*1288 FILLER_0_25_210
*1289 FILLER_0_25_222
*1290 FILLER_0_25_230
*1291 FILLER_0_25_242
*1292 FILLER_0_25_281
*1293 FILLER_0_25_293
*1294 FILLER_0_25_3
*1295 FILLER_0_25_314
*1296 FILLER_0_25_318
*1297 FILLER_0_25_333
*1298 FILLER_0_25_44
*1299 FILLER_0_25_73
*1300 FILLER_0_26_109
*1301 FILLER_0_26_11
*1302 FILLER_0_26_117
*1303 FILLER_0_26_165
*1304 FILLER_0_26_171
*1305 FILLER_0_26_183
*1306 FILLER_0_26_193
*1307 FILLER_0_26_215
*1308 FILLER_0_26_233
*1309 FILLER_0_26_245
*1310 FILLER_0_26_251
*1311 FILLER_0_26_27
*1312 FILLER_0_26_285
*1313 FILLER_0_26_29
*1314 FILLER_0_26_3
*1315 FILLER_0_26_317
*1316 FILLER_0_26_325
*1317 FILLER_0_26_64
*1318 FILLER_0_26_76
*1319 FILLER_0_26_80
*1320 FILLER_0_26_90
*1321 FILLER_0_27_100
*1322 FILLER_0_27_113
*1323 FILLER_0_27_119
*1324 FILLER_0_27_15
*1325 FILLER_0_27_150
*1326 FILLER_0_27_157
*1327 FILLER_0_27_165
*1328 FILLER_0_27_169
*1329 FILLER_0_27_188
*1330 FILLER_0_27_194
*1331 FILLER_0_27_219
*1332 FILLER_0_27_223
*1333 FILLER_0_27_249
*1334 FILLER_0_27_255
*1335 FILLER_0_27_27
*1336 FILLER_0_27_278
*1337 FILLER_0_27_281
*1338 FILLER_0_27_293
*1339 FILLER_0_27_3
*1340 FILLER_0_27_314
*1341 FILLER_0_27_331
*1342 FILLER_0_27_35
*1343 FILLER_0_27_44
*1344 FILLER_0_27_57
*1345 FILLER_0_27_69
*1346 FILLER_0_28_112
*1347 FILLER_0_28_124
*1348 FILLER_0_28_136
*1349 FILLER_0_28_141
*1350 FILLER_0_28_153
*1351 FILLER_0_28_165
*1352 FILLER_0_28_177
*1353 FILLER_0_28_185
*1354 FILLER_0_28_197
*1355 FILLER_0_28_216
*1356 FILLER_0_28_228
*1357 FILLER_0_28_245
*1358 FILLER_0_28_251
*1359 FILLER_0_28_253
*1360 FILLER_0_28_261
*1361 FILLER_0_28_281
*1362 FILLER_0_28_293
*1363 FILLER_0_28_3
*1364 FILLER_0_28_306
*1365 FILLER_0_28_309
*1366 FILLER_0_28_37
*1367 FILLER_0_28_57
*1368 FILLER_0_28_69
*1369 FILLER_0_28_77
*1370 FILLER_0_28_98
*1371 FILLER_0_29_118
*1372 FILLER_0_29_126
*1373 FILLER_0_29_139
*1374 FILLER_0_29_155
*1375 FILLER_0_29_167
*1376 FILLER_0_29_169
*1377 FILLER_0_29_181
*1378 FILLER_0_29_198
*1379 FILLER_0_29_210
*1380 FILLER_0_29_223
*1381 FILLER_0_29_262
*1382 FILLER_0_29_287
*1383 FILLER_0_29_293
*1384 FILLER_0_29_3
*1385 FILLER_0_29_314
*1386 FILLER_0_29_326
*1387 FILLER_0_29_334
*1388 FILLER_0_29_34
*1389 FILLER_0_29_69
*1390 FILLER_0_29_94
*1391 FILLER_0_2_109
*1392 FILLER_0_2_121
*1393 FILLER_0_2_133
*1394 FILLER_0_2_139
*1395 FILLER_0_2_141
*1396 FILLER_0_2_15
*1397 FILLER_0_2_153
*1398 FILLER_0_2_165
*1399 FILLER_0_2_177
*1400 FILLER_0_2_189
*1401 FILLER_0_2_195
*1402 FILLER_0_2_197
*1403 FILLER_0_2_209
*1404 FILLER_0_2_221
*1405 FILLER_0_2_233
*1406 FILLER_0_2_245
*1407 FILLER_0_2_251
*1408 FILLER_0_2_253
*1409 FILLER_0_2_265
*1410 FILLER_0_2_27
*1411 FILLER_0_2_277
*1412 FILLER_0_2_289
*1413 FILLER_0_2_29
*1414 FILLER_0_2_3
*1415 FILLER_0_2_301
*1416 FILLER_0_2_307
*1417 FILLER_0_2_309
*1418 FILLER_0_2_321
*1419 FILLER_0_2_333
*1420 FILLER_0_2_41
*1421 FILLER_0_2_53
*1422 FILLER_0_2_65
*1423 FILLER_0_2_77
*1424 FILLER_0_2_83
*1425 FILLER_0_2_85
*1426 FILLER_0_2_97
*1427 FILLER_0_30_117
*1428 FILLER_0_30_129
*1429 FILLER_0_30_144
*1430 FILLER_0_30_161
*1431 FILLER_0_30_169
*1432 FILLER_0_30_220
*1433 FILLER_0_30_236
*1434 FILLER_0_30_25
*1435 FILLER_0_30_256
*1436 FILLER_0_30_268
*1437 FILLER_0_30_285
*1438 FILLER_0_30_29
*1439 FILLER_0_30_3
*1440 FILLER_0_30_309
*1441 FILLER_0_30_78
*1442 FILLER_0_30_85
*1443 FILLER_0_31_122
*1444 FILLER_0_31_15
*1445 FILLER_0_31_156
*1446 FILLER_0_31_169
*1447 FILLER_0_31_200
*1448 FILLER_0_31_212
*1449 FILLER_0_31_221
*1450 FILLER_0_31_225
*1451 FILLER_0_31_233
*1452 FILLER_0_31_241
*1453 FILLER_0_31_267
*1454 FILLER_0_31_27
*1455 FILLER_0_31_279
*1456 FILLER_0_31_281
*1457 FILLER_0_31_3
*1458 FILLER_0_31_323
*1459 FILLER_0_31_334
*1460 FILLER_0_31_39
*1461 FILLER_0_31_51
*1462 FILLER_0_31_55
*1463 FILLER_0_31_69
*1464 FILLER_0_31_77
*1465 FILLER_0_32_100
*1466 FILLER_0_32_11
*1467 FILLER_0_32_112
*1468 FILLER_0_32_157
*1469 FILLER_0_32_165
*1470 FILLER_0_32_17
*1471 FILLER_0_32_182
*1472 FILLER_0_32_194
*1473 FILLER_0_32_202
*1474 FILLER_0_32_208
*1475 FILLER_0_32_231
*1476 FILLER_0_32_239
*1477 FILLER_0_32_247
*1478 FILLER_0_32_251
*1479 FILLER_0_32_26
*1480 FILLER_0_32_260
*1481 FILLER_0_32_268
*1482 FILLER_0_32_280
*1483 FILLER_0_32_288
*1484 FILLER_0_32_29
*1485 FILLER_0_32_296
*1486 FILLER_0_32_3
*1487 FILLER_0_32_305
*1488 FILLER_0_32_314
*1489 FILLER_0_32_331
*1490 FILLER_0_32_41
*1491 FILLER_0_32_59
*1492 FILLER_0_32_71
*1493 FILLER_0_32_77
*1494 FILLER_0_32_83
*1495 FILLER_0_32_85
*1496 FILLER_0_32_91
*1497 FILLER_0_33_106
*1498 FILLER_0_33_113
*1499 FILLER_0_33_125
*1500 FILLER_0_33_129
*1501 FILLER_0_33_138
*1502 FILLER_0_33_150
*1503 FILLER_0_33_162
*1504 FILLER_0_33_194
*1505 FILLER_0_33_223
*1506 FILLER_0_33_240
*1507 FILLER_0_33_248
*1508 FILLER_0_33_264
*1509 FILLER_0_33_276
*1510 FILLER_0_33_281
*1511 FILLER_0_33_296
*1512 FILLER_0_33_3
*1513 FILLER_0_33_308
*1514 FILLER_0_33_325
*1515 FILLER_0_33_333
*1516 FILLER_0_33_51
*1517 FILLER_0_33_55
*1518 FILLER_0_33_66
*1519 FILLER_0_33_7
*1520 FILLER_0_33_70
*1521 FILLER_0_33_87
*1522 FILLER_0_33_99
*1523 FILLER_0_34_117
*1524 FILLER_0_34_129
*1525 FILLER_0_34_148
*1526 FILLER_0_34_175
*1527 FILLER_0_34_182
*1528 FILLER_0_34_194
*1529 FILLER_0_34_197
*1530 FILLER_0_34_243
*1531 FILLER_0_34_251
*1532 FILLER_0_34_26
*1533 FILLER_0_34_269
*1534 FILLER_0_34_281
*1535 FILLER_0_34_3
*1536 FILLER_0_34_304
*1537 FILLER_0_34_321
*1538 FILLER_0_34_333
*1539 FILLER_0_34_34
*1540 FILLER_0_34_52
*1541 FILLER_0_34_59
*1542 FILLER_0_34_71
*1543 FILLER_0_34_75
*1544 FILLER_0_34_79
*1545 FILLER_0_34_83
*1546 FILLER_0_34_85
*1547 FILLER_0_34_89
*1548 FILLER_0_35_111
*1549 FILLER_0_35_113
*1550 FILLER_0_35_121
*1551 FILLER_0_35_155
*1552 FILLER_0_35_166
*1553 FILLER_0_35_178
*1554 FILLER_0_35_190
*1555 FILLER_0_35_198
*1556 FILLER_0_35_228
*1557 FILLER_0_35_240
*1558 FILLER_0_35_26
*1559 FILLER_0_35_278
*1560 FILLER_0_35_281
*1561 FILLER_0_35_287
*1562 FILLER_0_35_3
*1563 FILLER_0_35_331
*1564 FILLER_0_35_38
*1565 FILLER_0_35_50
*1566 FILLER_0_35_57
*1567 FILLER_0_35_73
*1568 FILLER_0_35_85
*1569 FILLER_0_35_9
*1570 FILLER_0_36_117
*1571 FILLER_0_36_160
*1572 FILLER_0_36_181
*1573 FILLER_0_36_191
*1574 FILLER_0_36_195
*1575 FILLER_0_36_197
*1576 FILLER_0_36_201
*1577 FILLER_0_36_21
*1578 FILLER_0_36_224
*1579 FILLER_0_36_236
*1580 FILLER_0_36_27
*1581 FILLER_0_36_278
*1582 FILLER_0_36_284
*1583 FILLER_0_36_29
*1584 FILLER_0_36_3
*1585 FILLER_0_36_309
*1586 FILLER_0_36_313
*1587 FILLER_0_36_334
*1588 FILLER_0_36_41
*1589 FILLER_0_36_78
*1590 FILLER_0_37_113
*1591 FILLER_0_37_125
*1592 FILLER_0_37_157
*1593 FILLER_0_37_165
*1594 FILLER_0_37_169
*1595 FILLER_0_37_209
*1596 FILLER_0_37_222
*1597 FILLER_0_37_24
*1598 FILLER_0_37_273
*1599 FILLER_0_37_279
*1600 FILLER_0_37_281
*1601 FILLER_0_37_3
*1602 FILLER_0_37_321
*1603 FILLER_0_37_327
*1604 FILLER_0_37_50
*1605 FILLER_0_37_7
*1606 FILLER_0_37_74
*1607 FILLER_0_38_10
*1608 FILLER_0_38_100
*1609 FILLER_0_38_113
*1610 FILLER_0_38_125
*1611 FILLER_0_38_137
*1612 FILLER_0_38_14
*1613 FILLER_0_38_150
*1614 FILLER_0_38_162
*1615 FILLER_0_38_169
*1616 FILLER_0_38_18
*1617 FILLER_0_38_190
*1618 FILLER_0_38_197
*1619 FILLER_0_38_209
*1620 FILLER_0_38_216
*1621 FILLER_0_38_22
*1622 FILLER_0_38_225
*1623 FILLER_0_38_237
*1624 FILLER_0_38_245
*1625 FILLER_0_38_277
*1626 FILLER_0_38_281
*1627 FILLER_0_38_296
*1628 FILLER_0_38_306
*1629 FILLER_0_38_309
*1630 FILLER_0_38_32
*1631 FILLER_0_38_328
*1632 FILLER_0_38_334
*1633 FILLER_0_38_38
*1634 FILLER_0_38_42
*1635 FILLER_0_38_46
*1636 FILLER_0_38_50
*1637 FILLER_0_38_54
*1638 FILLER_0_38_57
*1639 FILLER_0_38_6
*1640 FILLER_0_38_62
*1641 FILLER_0_38_74