*SPEF "ieee 1481-1999"
*DESIGN "tt_um_drops"
*DATE "11:11:11 Fri 11 11, 1111"
*VENDOR "OpenRCX"
*PROGRAM "Parallel Extraction"
*VERSION "1.0"
*DESIGN_FLOW "NAME_SCOPE LOCAL" "PIN_CAP NONE"
*DIVIDER /
*DELIMITER :
*BUS_DELIMITER []
*T_UNIT 1 NS
*C_UNIT 1 PF
*R_UNIT 1 OHM
*L_UNIT 1 HENRY

*NAME_MAP
*3 clk
*4 ena
*5 rst_n
*6 ui_in[0]
*7 ui_in[1]
*8 ui_in[2]
*9 ui_in[3]
*10 ui_in[4]
*11 ui_in[5]
*12 ui_in[6]
*13 ui_in[7]
*14 uio_in[0]
*15 uio_in[1]
*16 uio_in[2]
*17 uio_in[3]
*18 uio_in[4]
*19 uio_in[5]
*20 uio_in[6]
*21 uio_in[7]
*22 net5
*23 net6
*24 net7
*25 net8
*26 net9
*27 net10
*28 net11
*29 net12
*30 uio_out[0]
*31 uio_out[1]
*32 uio_out[2]
*33 uio_out[3]
*34 uio_out[4]
*35 uio_out[5]
*36 uio_out[6]
*37 uio_out[7]
*38 uo_out[0]
*39 uo_out[1]
*40 uo_out[2]
*41 uo_out[3]
*42 uo_out[4]
*43 uo_out[5]
*44 uo_out[6]
*45 uo_out[7]
*46 State\[0\]
*47 State\[1\]
*48 State\[2\]
*49 _0000_
*50 _0008_
*51 _0009_
*52 _0010_
*53 _0011_
*54 _0012_
*55 _0013_
*56 _0014_
*57 _0015_
*58 _0016_
*59 _0017_
*60 _0018_
*61 _0019_
*62 _0020_
*63 _0021_
*64 _0022_
*65 _0023_
*66 _0024_
*67 _0025_
*68 _0026_
*69 _0027_
*70 _0028_
*71 _0029_
*72 _0030_
*73 _0031_
*74 _0032_
*75 _0033_
*76 _0034_
*77 _0035_
*78 _0036_
*79 _0037_
*80 _0038_
*81 _0039_
*82 _0040_
*83 _0041_
*84 _0042_
*85 _0043_
*86 _0044_
*87 _0045_
*88 _0046_
*89 _0047_
*90 _0048_
*91 _0049_
*92 _0050_
*93 _0051_
*94 _0052_
*95 _0053_
*96 _0054_
*97 _0055_
*98 _0056_
*99 _0057_
*100 _0058_
*101 _0059_
*102 _0060_
*103 _0061_
*104 _0062_
*105 _0063_
*106 _0064_
*107 _0065_
*108 _0066_
*109 _0067_
*110 _0068_
*111 _0069_
*112 _0070_
*113 _0071_
*114 _0072_
*115 _0073_
*116 _0074_
*117 _0075_
*118 _0076_
*119 _0077_
*120 _0078_
*121 _0079_
*122 _0080_
*123 _0081_
*124 _0082_
*125 _0083_
*126 _0084_
*127 _0085_
*128 _0086_
*129 _0087_
*130 _0088_
*131 _0089_
*132 _0090_
*133 _0091_
*134 _0092_
*135 _0093_
*136 _0094_
*137 _0095_
*138 _0096_
*139 _0097_
*140 _0098_
*141 _0099_
*142 _0100_
*143 _0101_
*144 _0102_
*145 _0103_
*146 _0104_
*147 _0105_
*148 _0106_
*149 _0107_
*150 _0108_
*151 _0109_
*152 _0110_
*153 _0111_
*154 _0112_
*155 _0113_
*156 _0114_
*157 _0115_
*158 _0116_
*159 _0117_
*160 _0118_
*161 _0119_
*162 _0120_
*163 _0121_
*164 _0122_
*165 _0123_
*166 _0124_
*167 _0125_
*168 _0126_
*169 _0127_
*170 _0128_
*171 _0129_
*172 _0130_
*173 _0131_
*174 _0132_
*175 _0133_
*176 _0134_
*177 _0135_
*178 _0136_
*179 _0137_
*180 _0138_
*181 _0139_
*182 _0140_
*183 _0141_
*184 _0142_
*185 _0143_
*186 _0144_
*187 _0145_
*188 _0146_
*189 _0147_
*190 _0148_
*191 _0149_
*192 _0150_
*193 _0151_
*194 _0152_
*195 _0153_
*196 _0154_
*197 _0155_
*198 _0156_
*199 _0157_
*200 _0158_
*201 _0159_
*202 _0160_
*203 _0161_
*204 _0162_
*205 _0163_
*206 _0164_
*207 _0165_
*208 _0166_
*209 _0167_
*210 _0168_
*211 _0169_
*212 _0170_
*213 _0171_
*214 _0172_
*215 _0173_
*216 _0174_
*217 _0175_
*218 _0176_
*219 _0177_
*220 _0178_
*221 _0179_
*222 _0180_
*223 _0181_
*224 _0182_
*225 _0183_
*226 _0184_
*227 _0185_
*228 _0186_
*229 _0187_
*230 _0188_
*231 _0189_
*232 _0190_
*233 _0191_
*234 _0192_
*235 _0193_
*236 _0194_
*237 _0195_
*238 _0196_
*239 _0197_
*240 _0198_
*241 _0199_
*242 _0200_
*243 _0201_
*244 _0202_
*245 _0203_
*246 _0204_
*247 _0205_
*248 _0206_
*249 _0207_
*250 _0208_
*251 _0209_
*252 _0210_
*253 _0211_
*254 _0212_
*255 _0213_
*256 _0214_
*257 _0215_
*258 _0216_
*259 _0217_
*260 _0218_
*261 _0219_
*262 _0220_
*263 _0221_
*264 _0222_
*265 _0223_
*266 _0224_
*267 _0225_
*268 _0226_
*269 _0227_
*270 _0228_
*271 _0229_
*272 _0230_
*273 _0231_
*274 _0232_
*275 _0233_
*276 _0234_
*277 _0235_
*278 _0236_
*279 _0237_
*280 _0238_
*281 _0239_
*282 _0240_
*283 _0241_
*284 _0242_
*285 _0243_
*286 _0244_
*287 _0245_
*288 _0246_
*289 _0247_
*290 _0248_
*291 _0249_
*292 _0250_
*293 _0251_
*294 _0252_
*295 _0253_
*296 _0254_
*297 _0255_
*298 _0256_
*299 _0257_
*300 _0258_
*301 _0259_
*302 _0260_
*303 _0261_
*304 _0262_
*305 _0263_
*306 _0264_
*307 _0265_
*308 _0266_
*309 _0267_
*310 _0268_
*311 _0269_
*312 _0270_
*313 _0271_
*314 _0272_
*315 _0273_
*316 _0274_
*317 _0275_
*318 _0276_
*319 _0277_
*320 _0278_
*321 _0279_
*322 _0280_
*323 _0281_
*324 _0282_
*325 _0283_
*326 _0284_
*327 _0285_
*328 _0286_
*329 _0287_
*330 _0288_
*331 _0289_
*332 _0290_
*333 _0291_
*334 _0292_
*335 _0293_
*336 _0294_
*337 _0295_
*338 _0296_
*339 _0297_
*340 _0298_
*341 _0299_
*342 _0300_
*343 _0301_
*344 _0302_
*345 _0303_
*346 _0304_
*347 _0305_
*348 _0306_
*349 _0307_
*350 _0308_
*351 _0309_
*352 _0310_
*353 _0311_
*354 _0312_
*355 _0313_
*356 _0314_
*357 _0315_
*358 _0316_
*359 _0317_
*360 _0318_
*361 _0319_
*362 _0320_
*363 _0321_
*364 _0322_
*365 _0323_
*366 _0324_
*367 _0325_
*368 _0326_
*369 _0327_
*370 _0328_
*371 _0329_
*372 _0330_
*373 _0331_
*374 _0332_
*375 _0333_
*376 _0334_
*377 _0335_
*378 _0336_
*379 _0337_
*380 _0338_
*381 _0339_
*382 _0340_
*383 _0341_
*384 _0342_
*385 _0343_
*386 _0344_
*387 _0345_
*388 _0346_
*389 _0347_
*390 _0348_
*391 _0349_
*392 _0350_
*393 _0351_
*394 _0352_
*395 _0353_
*396 _0354_
*397 _0355_
*398 _0356_
*399 _0357_
*400 _0358_
*401 _0359_
*402 _0360_
*403 _0361_
*404 _0362_
*405 _0363_
*406 _0364_
*407 _0365_
*408 _0366_
*409 _0367_
*410 _0368_
*411 _0369_
*412 _0370_
*413 _0371_
*414 _0372_
*415 _0373_
*416 _0374_
*417 _0375_
*418 _0376_
*419 _0377_
*420 _0378_
*421 _0379_
*422 _0380_
*423 _0381_
*424 _0382_
*425 _0383_
*426 _0384_
*427 _0385_
*428 _0386_
*429 _0387_
*430 _0388_
*431 _0389_
*432 _0390_
*433 _0391_
*434 _0392_
*435 _0393_
*436 _0394_
*437 _0395_
*438 _0396_
*439 _0397_
*440 _0398_
*441 _0399_
*442 _0400_
*443 _0401_
*444 _0402_
*445 _0403_
*446 _0404_
*447 _0405_
*448 _0406_
*449 _0407_
*450 _0408_
*451 _0409_
*452 _0410_
*453 _0411_
*454 _0412_
*455 _0413_
*456 _0414_
*457 _0415_
*458 _0416_
*459 _0417_
*460 _0418_
*461 _0419_
*462 _0420_
*463 _0421_
*464 _0422_
*465 _0423_
*466 _0424_
*467 _0425_
*468 _0426_
*469 _0427_
*470 _0428_
*471 _0429_
*472 _0430_
*473 _0431_
*474 _0432_
*475 _0433_
*476 _0434_
*477 _0435_
*478 _0436_
*479 _0437_
*480 _0438_
*481 _0439_
*482 _0440_
*483 _0441_
*484 _0442_
*485 _0443_
*486 _0444_
*487 _0445_
*488 _0446_
*489 _0447_
*490 _0448_
*491 _0449_
*492 _0450_
*493 _0451_
*494 _0452_
*495 _0453_
*496 _0454_
*497 _0455_
*498 _0456_
*499 _0457_
*500 _0458_
*501 _0459_
*502 _0460_
*503 _0461_
*504 _0462_
*505 _0463_
*506 _0464_
*507 _0465_
*508 _0466_
*509 _0467_
*510 _0468_
*511 _0469_
*512 _0470_
*513 _0471_
*514 _0472_
*515 _0473_
*516 _0474_
*517 _0475_
*518 _0476_
*519 _0477_
*520 _0478_
*521 _0479_
*522 _0480_
*523 _0481_
*524 _0482_
*525 _0483_
*526 _0484_
*527 _0485_
*528 _0486_
*529 _0487_
*530 _0488_
*531 _0489_
*532 _0490_
*533 _0491_
*534 _0492_
*535 _0493_
*536 _0494_
*537 _0495_
*538 _0496_
*539 _0497_
*540 _0498_
*541 _0499_
*542 _0500_
*543 _0501_
*544 _0502_
*545 _0503_
*546 _0504_
*547 _0505_
*548 _0506_
*549 _0507_
*550 _0508_
*551 _0509_
*552 _0510_
*553 _0511_
*554 _0512_
*555 _0513_
*556 _0514_
*557 _0515_
*558 _0516_
*559 _0517_
*560 _0518_
*561 _0519_
*562 _0520_
*563 _0521_
*564 _0522_
*565 _0523_
*566 _0524_
*567 _0525_
*568 _0526_
*569 _0527_
*570 _0528_
*571 _0529_
*572 _0530_
*573 _0531_
*574 _0532_
*575 _0533_
*576 _0534_
*577 _0535_
*578 _0536_
*579 _0537_
*580 _0538_
*581 _0539_
*582 _0540_
*583 _0541_
*584 _0542_
*585 _0543_
*586 _0544_
*587 _0545_
*588 _0546_
*589 _0547_
*590 _0548_
*591 _0549_
*592 _0550_
*593 _0551_
*594 _0552_
*595 _0553_
*596 _0554_
*597 _0555_
*598 _0556_
*599 _0557_
*600 _0558_
*601 _0559_
*602 _0560_
*603 _0561_
*604 _0562_
*605 _0563_
*606 _0564_
*607 _0565_
*608 _0566_
*609 _0567_
*610 _0568_
*611 _0569_
*612 _0570_
*613 _0571_
*614 action_dut\.bar_pos\[0\]
*615 action_dut\.bar_pos\[1\]
*616 action_dut\.bar_pos\[2\]
*617 action_dut\.bar_pos\[3\]
*618 action_dut\.bar_pos\[4\]
*619 action_dut\.bar_pos\[5\]
*620 action_dut\.bar_pos\[6\]
*621 action_dut\.bar_pos\[7\]
*622 action_dut\.change_counter\[0\]
*623 action_dut\.change_counter\[1\]
*624 action_dut\.change_counter\[2\]
*625 action_dut\.change_counter\[3\]
*626 action_dut\.dead
*627 action_dut\.drop_height\[0\]
*628 action_dut\.drop_height\[1\]
*629 action_dut\.drop_height\[2\]
*630 action_dut\.drop_height\[3\]
*631 action_dut\.drop_height\[4\]
*632 action_dut\.drop_height\[5\]
*633 action_dut\.drop_height\[6\]
*634 action_dut\.drop_height\[7\]
*635 action_dut\.drop_pos\[0\]
*636 action_dut\.drop_pos\[1\]
*637 action_dut\.drop_pos\[2\]
*638 action_dut\.drop_pos\[3\]
*639 action_dut\.drop_pos\[4\]
*640 action_dut\.drop_pos\[5\]
*641 action_dut\.drop_pos\[6\]
*642 action_dut\.drop_pos\[7\]
*643 action_dut\.e_act_i
*644 action_dut\.left_i
*645 action_dut\.life_counter\[0\]
*646 action_dut\.life_counter\[1\]
*647 action_dut\.life_counter\[2\]
*648 action_dut\.life_counter\[3\]
*649 action_dut\.life_counter\[4\]
*650 action_dut\.life_counter\[5\]
*651 action_dut\.life_counter\[6\]
*652 action_dut\.life_counter\[7\]
*653 action_dut\.matrix\[0\]
*654 action_dut\.matrix\[10\]
*655 action_dut\.matrix\[11\]
*656 action_dut\.matrix\[12\]
*657 action_dut\.matrix\[13\]
*658 action_dut\.matrix\[14\]
*659 action_dut\.matrix\[15\]
*660 action_dut\.matrix\[16\]
*661 action_dut\.matrix\[17\]
*662 action_dut\.matrix\[18\]
*663 action_dut\.matrix\[19\]
*664 action_dut\.matrix\[1\]
*665 action_dut\.matrix\[20\]
*666 action_dut\.matrix\[21\]
*667 action_dut\.matrix\[22\]
*668 action_dut\.matrix\[23\]
*669 action_dut\.matrix\[24\]
*670 action_dut\.matrix\[25\]
*671 action_dut\.matrix\[26\]
*672 action_dut\.matrix\[27\]
*673 action_dut\.matrix\[28\]
*674 action_dut\.matrix\[29\]
*675 action_dut\.matrix\[2\]
*676 action_dut\.matrix\[30\]
*677 action_dut\.matrix\[31\]
*678 action_dut\.matrix\[32\]
*679 action_dut\.matrix\[33\]
*680 action_dut\.matrix\[34\]
*681 action_dut\.matrix\[35\]
*682 action_dut\.matrix\[36\]
*683 action_dut\.matrix\[37\]
*684 action_dut\.matrix\[38\]
*685 action_dut\.matrix\[39\]
*686 action_dut\.matrix\[3\]
*687 action_dut\.matrix\[40\]
*688 action_dut\.matrix\[41\]
*689 action_dut\.matrix\[42\]
*690 action_dut\.matrix\[43\]
*691 action_dut\.matrix\[44\]
*692 action_dut\.matrix\[45\]
*693 action_dut\.matrix\[46\]
*694 action_dut\.matrix\[47\]
*695 action_dut\.matrix\[48\]
*696 action_dut\.matrix\[49\]
*697 action_dut\.matrix\[4\]
*698 action_dut\.matrix\[50\]
*699 action_dut\.matrix\[51\]
*700 action_dut\.matrix\[52\]
*701 action_dut\.matrix\[53\]
*702 action_dut\.matrix\[54\]
*703 action_dut\.matrix\[55\]
*704 action_dut\.matrix\[56\]
*705 action_dut\.matrix\[57\]
*706 action_dut\.matrix\[58\]
*707 action_dut\.matrix\[59\]
*708 action_dut\.matrix\[5\]
*709 action_dut\.matrix\[60\]
*710 action_dut\.matrix\[61\]
*711 action_dut\.matrix\[62\]
*712 action_dut\.matrix\[63\]
*713 action_dut\.matrix\[6\]
*714 action_dut\.matrix\[7\]
*715 action_dut\.matrix\[8\]
*716 action_dut\.matrix\[9\]
*717 action_dut\.pos_counter\[0\]
*718 action_dut\.pos_counter\[1\]
*719 action_dut\.pos_counter\[2\]
*720 action_dut\.pos_counter\[3\]
*721 action_dut\.pos_counter\[4\]
*722 action_dut\.reset_i
*723 action_dut\.right_i
*724 clknet_0_clk
*725 clknet_4_0_0_clk
*726 clknet_4_10_0_clk
*727 clknet_4_11_0_clk
*728 clknet_4_12_0_clk
*729 clknet_4_13_0_clk
*730 clknet_4_14_0_clk
*731 clknet_4_15_0_clk
*732 clknet_4_1_0_clk
*733 clknet_4_2_0_clk
*734 clknet_4_3_0_clk
*735 clknet_4_4_0_clk
*736 clknet_4_5_0_clk
*737 clknet_4_6_0_clk
*738 clknet_4_7_0_clk
*739 clknet_4_8_0_clk
*740 clknet_4_9_0_clk
*741 display_dut\.clk_new\[0\]
*742 display_dut\.clk_new\[10\]
*743 display_dut\.clk_new\[11\]
*744 display_dut\.clk_new\[1\]
*745 display_dut\.clk_new\[2\]
*746 display_dut\.clk_new\[3\]
*747 display_dut\.clk_new\[4\]
*748 display_dut\.clk_new\[5\]
*749 display_dut\.clk_new\[6\]
*750 display_dut\.clk_new\[7\]
*751 display_dut\.clk_new\[8\]
*752 display_dut\.clk_new\[9\]
*753 display_dut\.d_disp
*754 display_dut\.e_disp
*755 display_dut\.row_d\[0\]
*756 display_dut\.row_d\[1\]
*757 display_dut\.row_d\[2\]
*758 display_dut\.row_d\[3\]
*759 display_dut\.row_d\[4\]
*760 display_dut\.row_d\[5\]
*761 display_dut\.row_d\[6\]
*762 display_dut\.row_d\[7\]
*763 display_dut\.row_d\[8\]
*764 get_input_dut\.e_inp
*765 get_input_dut\.left_cr\[0\]
*766 get_input_dut\.left_cr\[1\]
*767 get_input_dut\.left_cr\[2\]
*768 get_input_dut\.left_cr\[3\]
*769 get_input_dut\.right_cr\[0\]
*770 get_input_dut\.right_cr\[1\]
*771 get_input_dut\.right_cr\[2\]
*772 get_input_dut\.right_cr\[3\]
*773 net1
*774 net13
*775 net14
*776 net15
*777 net16
*778 net17
*779 net18
*780 net19
*781 net2
*782 net20
*783 net21
*784 net22
*785 net23
*786 net24
*787 net25
*788 net26
*789 net27
*790 net28
*791 net29
*792 net3
*793 net30
*794 net31
*795 net32
*796 net33
*797 net34
*798 net35
*799 net36
*800 net37
*801 net38
*802 net39
*803 net4
*804 net40
*805 net41
*806 net42
*807 net43
*808 net44
*809 net45
*810 net46
*811 net47
*812 net48
*813 net49
*814 net50
*815 net51
*816 net52
*817 net53
*818 net54
*819 net55
*820 net56
*821 net57
*822 net58
*823 net59
*824 net60
*825 net61
*826 net62
*827 net63
*828 net64
*829 net65
*830 net66
*831 net67
*832 net68
*833 net69
*834 net70
*835 net71
*836 net72
*837 net73
*838 net74
*839 net75
*840 net76
*841 net77
*842 net78
*843 net79
*844 net80
*845 net81
*846 net82
*847 net83
*848 net84
*849 net85
*850 net86
*851 net87
*852 net88
*853 net89
*854 net90
*855 net91
*856 net92
*857 net93
*858 net94
*859 net95
*860 net96
*861 net97
*862 FILLER_0_0_109
*863 FILLER_0_0_113
*864 FILLER_0_0_125
*865 FILLER_0_0_137
*866 FILLER_0_0_141
*867 FILLER_0_0_15
*868 FILLER_0_0_153
*869 FILLER_0_0_165
*870 FILLER_0_0_169
*871 FILLER_0_0_181
*872 FILLER_0_0_193
*873 FILLER_0_0_197
*874 FILLER_0_0_209
*875 FILLER_0_0_221
*876 FILLER_0_0_225
*877 FILLER_0_0_237
*878 FILLER_0_0_249
*879 FILLER_0_0_253
*880 FILLER_0_0_265
*881 FILLER_0_0_27
*882 FILLER_0_0_277
*883 FILLER_0_0_281
*884 FILLER_0_0_29
*885 FILLER_0_0_293
*886 FILLER_0_0_3
*887 FILLER_0_0_305
*888 FILLER_0_0_309
*889 FILLER_0_0_321
*890 FILLER_0_0_333
*891 FILLER_0_0_41
*892 FILLER_0_0_53
*893 FILLER_0_0_57
*894 FILLER_0_0_69
*895 FILLER_0_0_81
*896 FILLER_0_0_85
*897 FILLER_0_0_97
*898 FILLER_0_10_113
*899 FILLER_0_10_125
*900 FILLER_0_10_137
*901 FILLER_0_10_146
*902 FILLER_0_10_15
*903 FILLER_0_10_162
*904 FILLER_0_10_174
*905 FILLER_0_10_194
*906 FILLER_0_10_205
*907 FILLER_0_10_217
*908 FILLER_0_10_23
*909 FILLER_0_10_247
*910 FILLER_0_10_251
*911 FILLER_0_10_261
*912 FILLER_0_10_269
*913 FILLER_0_10_287
*914 FILLER_0_10_299
*915 FILLER_0_10_3
*916 FILLER_0_10_315
*917 FILLER_0_10_324
*918 FILLER_0_10_333
*919 FILLER_0_10_36
*920 FILLER_0_10_55
*921 FILLER_0_10_67
*922 FILLER_0_10_82
*923 FILLER_0_10_90
*924 FILLER_0_11_109
*925 FILLER_0_11_11
*926 FILLER_0_11_129
*927 FILLER_0_11_141
*928 FILLER_0_11_147
*929 FILLER_0_11_153
*930 FILLER_0_11_165
*931 FILLER_0_11_169
*932 FILLER_0_11_177
*933 FILLER_0_11_195
*934 FILLER_0_11_207
*935 FILLER_0_11_215
*936 FILLER_0_11_248
*937 FILLER_0_11_270
*938 FILLER_0_11_278
*939 FILLER_0_11_28
*940 FILLER_0_11_289
*941 FILLER_0_11_296
*942 FILLER_0_11_3
*943 FILLER_0_11_308
*944 FILLER_0_11_331
*945 FILLER_0_11_35
*946 FILLER_0_11_46
*947 FILLER_0_11_54
*948 FILLER_0_11_64
*949 FILLER_0_11_68
*950 FILLER_0_11_92
*951 FILLER_0_12_105
*952 FILLER_0_12_160
*953 FILLER_0_12_168
*954 FILLER_0_12_195
*955 FILLER_0_12_209
*956 FILLER_0_12_217
*957 FILLER_0_12_245
*958 FILLER_0_12_251
*959 FILLER_0_12_253
*960 FILLER_0_12_272
*961 FILLER_0_12_284
*962 FILLER_0_12_3
*963 FILLER_0_12_303
*964 FILLER_0_12_37
*965 FILLER_0_12_49
*966 FILLER_0_12_78
*967 FILLER_0_12_85
*968 FILLER_0_13_111
*969 FILLER_0_13_113
*970 FILLER_0_13_127
*971 FILLER_0_13_144
*972 FILLER_0_13_15
*973 FILLER_0_13_169
*974 FILLER_0_13_177
*975 FILLER_0_13_204
*976 FILLER_0_13_211
*977 FILLER_0_13_225
*978 FILLER_0_13_245
*979 FILLER_0_13_257
*980 FILLER_0_13_275
*981 FILLER_0_13_279
*982 FILLER_0_13_281
*983 FILLER_0_13_287
*984 FILLER_0_13_3
*985 FILLER_0_13_300
*986 FILLER_0_13_322
*987 FILLER_0_13_38
*988 FILLER_0_13_46
*989 FILLER_0_13_80
*990 FILLER_0_13_88
*991 FILLER_0_14_102
*992 FILLER_0_14_106
*993 FILLER_0_14_119
*994 FILLER_0_14_136
*995 FILLER_0_14_148
*996 FILLER_0_14_166
*997 FILLER_0_14_178
*998 FILLER_0_14_18
*999 FILLER_0_14_194
*1000 FILLER_0_14_204
*1001 FILLER_0_14_228
*1002 FILLER_0_14_240
*1003 FILLER_0_14_258
*1004 FILLER_0_14_26
*1005 FILLER_0_14_264
*1006 FILLER_0_14_276
*1007 FILLER_0_14_294
*1008 FILLER_0_14_3
*1009 FILLER_0_14_305
*1010 FILLER_0_14_314
*1011 FILLER_0_14_318
*1012 FILLER_0_14_325
*1013 FILLER_0_14_333
*1014 FILLER_0_14_36
*1015 FILLER_0_14_44
*1016 FILLER_0_14_50
*1017 FILLER_0_14_72
*1018 FILLER_0_14_85
*1019 FILLER_0_14_93
*1020 FILLER_0_15_111
*1021 FILLER_0_15_113
*1022 FILLER_0_15_123
*1023 FILLER_0_15_163
*1024 FILLER_0_15_167
*1025 FILLER_0_15_169
*1026 FILLER_0_15_211
*1027 FILLER_0_15_223
*1028 FILLER_0_15_225
*1029 FILLER_0_15_234
*1030 FILLER_0_15_251
*1031 FILLER_0_15_279
*1032 FILLER_0_15_281
*1033 FILLER_0_15_288
*1034 FILLER_0_15_3
*1035 FILLER_0_15_308
*1036 FILLER_0_15_31
*1037 FILLER_0_15_328
*1038 FILLER_0_15_334
*1039 FILLER_0_15_55
*1040 FILLER_0_15_9
*1041 FILLER_0_16_123
*1042 FILLER_0_16_135
*1043 FILLER_0_16_139
*1044 FILLER_0_16_146
*1045 FILLER_0_16_15
*1046 FILLER_0_16_150
*1047 FILLER_0_16_167
*1048 FILLER_0_16_174
*1049 FILLER_0_16_182
*1050 FILLER_0_16_193
*1051 FILLER_0_16_205
*1052 FILLER_0_16_24
*1053 FILLER_0_16_242
*1054 FILLER_0_16_250
*1055 FILLER_0_16_286
*1056 FILLER_0_16_29
*1057 FILLER_0_16_296
*1058 FILLER_0_16_3
*1059 FILLER_0_16_306
*1060 FILLER_0_16_314
*1061 FILLER_0_16_331
*1062 FILLER_0_16_40
*1063 FILLER_0_16_48
*1064 FILLER_0_16_70
*1065 FILLER_0_16_80
*1066 FILLER_0_16_85
*1067 FILLER_0_17_113
*1068 FILLER_0_17_125
*1069 FILLER_0_17_131
*1070 FILLER_0_17_143
*1071 FILLER_0_17_151
*1072 FILLER_0_17_165
*1073 FILLER_0_17_177
*1074 FILLER_0_17_183
*1075 FILLER_0_17_195
*1076 FILLER_0_17_221
*1077 FILLER_0_17_241
*1078 FILLER_0_17_289
*1079 FILLER_0_17_3
*1080 FILLER_0_17_310
*1081 FILLER_0_17_322
*1082 FILLER_0_17_333
*1083 FILLER_0_17_34
*1084 FILLER_0_17_42
*1085 FILLER_0_17_49
*1086 FILLER_0_17_55
*1087 FILLER_0_17_57
*1088 FILLER_0_17_69
*1089 FILLER_0_17_96
*1090 FILLER_0_18_11
*1091 FILLER_0_18_113
*1092 FILLER_0_18_125
*1093 FILLER_0_18_129
*1094 FILLER_0_18_141
*1095 FILLER_0_18_163
*1096 FILLER_0_18_169
*1097 FILLER_0_18_189
*1098 FILLER_0_18_195
*1099 FILLER_0_18_197
*1100 FILLER_0_18_209
*1101 FILLER_0_18_213
*1102 FILLER_0_18_220
*1103 FILLER_0_18_232
*1104 FILLER_0_18_246
*1105 FILLER_0_18_253
*1106 FILLER_0_18_258
*1107 FILLER_0_18_282
*1108 FILLER_0_18_293
*1109 FILLER_0_18_299
*1110 FILLER_0_18_3
*1111 FILLER_0_18_325
*1112 FILLER_0_18_36
*1113 FILLER_0_18_40
*1114 FILLER_0_18_51
*1115 FILLER_0_18_63
*1116 FILLER_0_18_69
*1117 FILLER_0_18_81
*1118 FILLER_0_18_85
*1119 FILLER_0_19_110
*1120 FILLER_0_19_113
*1121 FILLER_0_19_142
*1122 FILLER_0_19_162
*1123 FILLER_0_19_169
*1124 FILLER_0_19_177
*1125 FILLER_0_19_203
*1126 FILLER_0_19_215
*1127 FILLER_0_19_233
*1128 FILLER_0_19_245
*1129 FILLER_0_19_263
*1130 FILLER_0_19_269
*1131 FILLER_0_19_278
*1132 FILLER_0_19_281
*1133 FILLER_0_19_3
*1134 FILLER_0_19_52
*1135 FILLER_0_19_89
*1136 FILLER_0_19_9
*1137 FILLER_0_19_97
*1138 FILLER_0_1_105
*1139 FILLER_0_1_111
*1140 FILLER_0_1_113
*1141 FILLER_0_1_125
*1142 FILLER_0_1_137
*1143 FILLER_0_1_149
*1144 FILLER_0_1_15
*1145 FILLER_0_1_161
*1146 FILLER_0_1_167
*1147 FILLER_0_1_169
*1148 FILLER_0_1_181
*1149 FILLER_0_1_193
*1150 FILLER_0_1_205
*1151 FILLER_0_1_217
*1152 FILLER_0_1_223
*1153 FILLER_0_1_225
*1154 FILLER_0_1_237
*1155 FILLER_0_1_249
*1156 FILLER_0_1_261
*1157 FILLER_0_1_27
*1158 FILLER_0_1_273
*1159 FILLER_0_1_279
*1160 FILLER_0_1_281
*1161 FILLER_0_1_293
*1162 FILLER_0_1_3
*1163 FILLER_0_1_305
*1164 FILLER_0_1_317
*1165 FILLER_0_1_329
*1166 FILLER_0_1_39
*1167 FILLER_0_1_51
*1168 FILLER_0_1_55
*1169 FILLER_0_1_57
*1170 FILLER_0_1_69
*1171 FILLER_0_1_81
*1172 FILLER_0_1_93
*1173 FILLER_0_20_109
*1174 FILLER_0_20_121
*1175 FILLER_0_20_162
*1176 FILLER_0_20_174
*1177 FILLER_0_20_191
*1178 FILLER_0_20_195
*1179 FILLER_0_20_205
*1180 FILLER_0_20_217
*1181 FILLER_0_20_253
*1182 FILLER_0_20_265
*1183 FILLER_0_20_285
*1184 FILLER_0_20_29
*1185 FILLER_0_20_297
*1186 FILLER_0_20_3
*1187 FILLER_0_20_303
*1188 FILLER_0_20_317
*1189 FILLER_0_20_328
*1190 FILLER_0_20_334
*1191 FILLER_0_20_41
*1192 FILLER_0_20_47
*1193 FILLER_0_20_51
*1194 FILLER_0_20_82
*1195 FILLER_0_21_111
*1196 FILLER_0_21_113
*1197 FILLER_0_21_125
*1198 FILLER_0_21_129
*1199 FILLER_0_21_15
*1200 FILLER_0_21_151
*1201 FILLER_0_21_161
*1202 FILLER_0_21_167
*1203 FILLER_0_21_216
*1204 FILLER_0_21_225
*1205 FILLER_0_21_233
*1206 FILLER_0_21_263
*1207 FILLER_0_21_27
*1208 FILLER_0_21_291
*1209 FILLER_0_21_3
*1210 FILLER_0_21_303
*1211 FILLER_0_21_318
*1212 FILLER_0_21_330
*1213 FILLER_0_21_334
*1214 FILLER_0_21_39
*1215 FILLER_0_21_51
*1216 FILLER_0_21_55
*1217 FILLER_0_21_57
*1218 FILLER_0_21_61
*1219 FILLER_0_21_72
*1220 FILLER_0_21_87
*1221 FILLER_0_22_108
*1222 FILLER_0_22_123
*1223 FILLER_0_22_131
*1224 FILLER_0_22_137
*1225 FILLER_0_22_144
*1226 FILLER_0_22_154
*1227 FILLER_0_22_166
*1228 FILLER_0_22_170
*1229 FILLER_0_22_191
*1230 FILLER_0_22_195
*1231 FILLER_0_22_197
*1232 FILLER_0_22_201
*1233 FILLER_0_22_217
*1234 FILLER_0_22_229
*1235 FILLER_0_22_241
*1236 FILLER_0_22_249
*1237 FILLER_0_22_253
*1238 FILLER_0_22_265
*1239 FILLER_0_22_288
*1240 FILLER_0_22_294
*1241 FILLER_0_22_3
*1242 FILLER_0_22_326
*1243 FILLER_0_22_334
*1244 FILLER_0_22_36
*1245 FILLER_0_22_43
*1246 FILLER_0_22_51
*1247 FILLER_0_22_59
*1248 FILLER_0_22_76
*1249 FILLER_0_22_85
*1250 FILLER_0_23_101
*1251 FILLER_0_23_111
*1252 FILLER_0_23_119
*1253 FILLER_0_23_131
*1254 FILLER_0_23_163
*1255 FILLER_0_23_167
*1256 FILLER_0_23_169
*1257 FILLER_0_23_177
*1258 FILLER_0_23_209
*1259 FILLER_0_23_225
*1260 FILLER_0_23_233
*1261 FILLER_0_23_242
*1262 FILLER_0_23_254
*1263 FILLER_0_23_266
*1264 FILLER_0_23_276
*1265 FILLER_0_23_281
*1266 FILLER_0_23_299
*1267 FILLER_0_23_3
*1268 FILLER_0_23_329
*1269 FILLER_0_23_34
*1270 FILLER_0_23_7
*1271 FILLER_0_23_86
*1272 FILLER_0_23_97
*1273 FILLER_0_24_116
*1274 FILLER_0_24_128
*1275 FILLER_0_24_132
*1276 FILLER_0_24_141
*1277 FILLER_0_24_165
*1278 FILLER_0_24_171
*1279 FILLER_0_24_206
*1280 FILLER_0_24_218
*1281 FILLER_0_24_226
*1282 FILLER_0_24_249
*1283 FILLER_0_24_253
*1284 FILLER_0_24_261
*1285 FILLER_0_24_27
*1286 FILLER_0_24_287
*1287 FILLER_0_24_29
*1288 FILLER_0_24_299
*1289 FILLER_0_24_3
*1290 FILLER_0_24_326
*1291 FILLER_0_24_334
*1292 FILLER_0_24_41
*1293 FILLER_0_24_53
*1294 FILLER_0_24_59
*1295 FILLER_0_25_11
*1296 FILLER_0_25_120
*1297 FILLER_0_25_128
*1298 FILLER_0_25_148
*1299 FILLER_0_25_166
*1300 FILLER_0_25_169
*1301 FILLER_0_25_177
*1302 FILLER_0_25_207
*1303 FILLER_0_25_21
*1304 FILLER_0_25_225
*1305 FILLER_0_25_260
*1306 FILLER_0_25_29
*1307 FILLER_0_25_290
*1308 FILLER_0_25_3
*1309 FILLER_0_25_308
*1310 FILLER_0_25_333
*1311 FILLER_0_25_45
*1312 FILLER_0_25_53
*1313 FILLER_0_26_126
*1314 FILLER_0_26_134
*1315 FILLER_0_26_157
*1316 FILLER_0_26_169
*1317 FILLER_0_26_177
*1318 FILLER_0_26_195
*1319 FILLER_0_26_24
*1320 FILLER_0_26_266
*1321 FILLER_0_26_299
*1322 FILLER_0_26_3
*1323 FILLER_0_26_309
*1324 FILLER_0_26_328
*1325 FILLER_0_26_334
*1326 FILLER_0_26_45
*1327 FILLER_0_26_7
*1328 FILLER_0_26_82
*1329 FILLER_0_26_85
*1330 FILLER_0_26_89
*1331 FILLER_0_27_121
*1332 FILLER_0_27_133
*1333 FILLER_0_27_141
*1334 FILLER_0_27_149
*1335 FILLER_0_27_15
*1336 FILLER_0_27_153
*1337 FILLER_0_27_157
*1338 FILLER_0_27_165
*1339 FILLER_0_27_169
*1340 FILLER_0_27_181
*1341 FILLER_0_27_207
*1342 FILLER_0_27_219
*1343 FILLER_0_27_223
*1344 FILLER_0_27_267
*1345 FILLER_0_27_27
*1346 FILLER_0_27_277
*1347 FILLER_0_27_292
*1348 FILLER_0_27_3
*1349 FILLER_0_27_304
*1350 FILLER_0_27_31
*1351 FILLER_0_27_316
*1352 FILLER_0_27_328
*1353 FILLER_0_27_334
*1354 FILLER_0_27_35
*1355 FILLER_0_27_47
*1356 FILLER_0_27_55
*1357 FILLER_0_27_84
*1358 FILLER_0_28_119
*1359 FILLER_0_28_127
*1360 FILLER_0_28_133
*1361 FILLER_0_28_139
*1362 FILLER_0_28_175
*1363 FILLER_0_28_185
*1364 FILLER_0_28_197
*1365 FILLER_0_28_209
*1366 FILLER_0_28_224
*1367 FILLER_0_28_241
*1368 FILLER_0_28_249
*1369 FILLER_0_28_253
*1370 FILLER_0_28_261
*1371 FILLER_0_28_27
*1372 FILLER_0_28_287
*1373 FILLER_0_28_299
*1374 FILLER_0_28_3
*1375 FILLER_0_28_309
*1376 FILLER_0_28_32
*1377 FILLER_0_28_322
*1378 FILLER_0_28_334
*1379 FILLER_0_28_44
*1380 FILLER_0_28_81
*1381 FILLER_0_28_85
*1382 FILLER_0_28_89
*1383 FILLER_0_29_11
*1384 FILLER_0_29_111
*1385 FILLER_0_29_113
*1386 FILLER_0_29_121
*1387 FILLER_0_29_150
*1388 FILLER_0_29_163
*1389 FILLER_0_29_167
*1390 FILLER_0_29_197
*1391 FILLER_0_29_209
*1392 FILLER_0_29_221
*1393 FILLER_0_29_232
*1394 FILLER_0_29_239
*1395 FILLER_0_29_251
*1396 FILLER_0_29_263
*1397 FILLER_0_29_290
*1398 FILLER_0_29_3
*1399 FILLER_0_29_324
*1400 FILLER_0_29_333
*1401 FILLER_0_29_42
*1402 FILLER_0_29_54
*1403 FILLER_0_29_57
*1404 FILLER_0_29_88
*1405 FILLER_0_29_96
*1406 FILLER_0_2_109
*1407 FILLER_0_2_121
*1408 FILLER_0_2_133
*1409 FILLER_0_2_139
*1410 FILLER_0_2_141
*1411 FILLER_0_2_15
*1412 FILLER_0_2_153
*1413 FILLER_0_2_165
*1414 FILLER_0_2_177
*1415 FILLER_0_2_189
*1416 FILLER_0_2_195
*1417 FILLER_0_2_197
*1418 FILLER_0_2_209
*1419 FILLER_0_2_221
*1420 FILLER_0_2_233
*1421 FILLER_0_2_245
*1422 FILLER_0_2_251
*1423 FILLER_0_2_253
*1424 FILLER_0_2_265
*1425 FILLER_0_2_27
*1426 FILLER_0_2_277
*1427 FILLER_0_2_289
*1428 FILLER_0_2_29
*1429 FILLER_0_2_3
*1430 FILLER_0_2_301
*1431 FILLER_0_2_307
*1432 FILLER_0_2_309
*1433 FILLER_0_2_321
*1434 FILLER_0_2_333
*1435 FILLER_0_2_41
*1436 FILLER_0_2_53
*1437 FILLER_0_2_65
*1438 FILLER_0_2_77
*1439 FILLER_0_2_83
*1440 FILLER_0_2_85
*1441 FILLER_0_2_97
*1442 FILLER_0_30_113
*1443 FILLER_0_30_125
*1444 FILLER_0_30_138
*1445 FILLER_0_30_141
*1446 FILLER_0_30_149
*1447 FILLER_0_30_160
*1448 FILLER_0_30_168
*1449 FILLER_0_30_177
*1450 FILLER_0_30_189
*1451 FILLER_0_30_195
*1452 FILLER_0_30_197
*1453 FILLER_0_30_205
*1454 FILLER_0_30_218
*1455 FILLER_0_30_247
*1456 FILLER_0_30_251
*1457 FILLER_0_30_253
*1458 FILLER_0_30_261
*1459 FILLER_0_30_3
*1460 FILLER_0_30_333
*1461 FILLER_0_30_45
*1462 FILLER_0_30_81
*1463 FILLER_0_30_9
*1464 FILLER_0_30_90
*1465 FILLER_0_31_11
*1466 FILLER_0_31_111
*1467 FILLER_0_31_113
*1468 FILLER_0_31_125
*1469 FILLER_0_31_132
*1470 FILLER_0_31_141
*1471 FILLER_0_31_153
*1472 FILLER_0_31_165
*1473 FILLER_0_31_169
*1474 FILLER_0_31_175
*1475 FILLER_0_31_181
*1476 FILLER_0_31_199
*1477 FILLER_0_31_257
*1478 FILLER_0_31_269
*1479 FILLER_0_31_299
*1480 FILLER_0_31_3
*1481 FILLER_0_31_325
*1482 FILLER_0_31_333
*1483 FILLER_0_31_39
*1484 FILLER_0_31_49
*1485 FILLER_0_32_101
*1486 FILLER_0_32_124
*1487 FILLER_0_32_136
*1488 FILLER_0_32_15
*1489 FILLER_0_32_169
*1490 FILLER_0_32_182
*1491 FILLER_0_32_21
*1492 FILLER_0_32_243
*1493 FILLER_0_32_251
*1494 FILLER_0_32_262
*1495 FILLER_0_32_27
*1496 FILLER_0_32_274
*1497 FILLER_0_32_282
*1498 FILLER_0_32_292
*1499 FILLER_0_32_298
*1500 FILLER_0_32_3
*1501 FILLER_0_32_303
*1502 FILLER_0_32_32
*1503 FILLER_0_32_325
*1504 FILLER_0_32_332
*1505 FILLER_0_32_40
*1506 FILLER_0_32_46
*1507 FILLER_0_32_80
*1508 FILLER_0_32_85
*1509 FILLER_0_32_96
*1510 FILLER_0_33_104
*1511 FILLER_0_33_108
*1512 FILLER_0_33_11
*1513 FILLER_0_33_128
*1514 FILLER_0_33_148
*1515 FILLER_0_33_152
*1516 FILLER_0_33_185
*1517 FILLER_0_33_189
*1518 FILLER_0_33_213
*1519 FILLER_0_33_221
*1520 FILLER_0_33_225
*1521 FILLER_0_33_237
*1522 FILLER_0_33_249
*1523 FILLER_0_33_261
*1524 FILLER_0_33_3
*1525 FILLER_0_33_302
*1526 FILLER_0_33_310
*1527 FILLER_0_33_35
*1528 FILLER_0_33_47
*1529 FILLER_0_33_55
*1530 FILLER_0_33_60
*1531 FILLER_0_33_68
*1532 FILLER_0_33_80
*1533 FILLER_0_33_92
*1534 FILLER_0_34_105
*1535 FILLER_0_34_11
*1536 FILLER_0_34_112
*1537 FILLER_0_34_128
*1538 FILLER_0_34_134
*1539 FILLER_0_34_138
*1540 FILLER_0_34_141
*1541 FILLER_0_34_153
*1542 FILLER_0_34_161
*1543 FILLER_0_34_172
*1544 FILLER_0_34_184
*1545 FILLER_0_34_197
*1546 FILLER_0_34_209
*1547 FILLER_0_34_221
*1548 FILLER_0_34_233
*1549 FILLER_0_34_245
*1550 FILLER_0_34_251
*1551 FILLER_0_34_264
*1552 FILLER_0_34_277
*1553 FILLER_0_34_289
*1554 FILLER_0_34_29
*1555 FILLER_0_34_3
*1556 FILLER_0_34_302
*1557 FILLER_0_34_332
*1558 FILLER_0_34_53
*1559 FILLER_0_34_65
*1560 FILLER_0_34_69
*1561 FILLER_0_34_77
*1562 FILLER_0_34_83
*1563 FILLER_0_34_85
*1564 FILLER_0_34_97
*1565 FILLER_0_35_121
*1566 FILLER_0_35_133
*1567 FILLER_0_35_148
*1568 FILLER_0_35_15
*1569 FILLER_0_35_160
*1570 FILLER_0_35_173
*1571 FILLER_0_35_194
*1572 FILLER_0_35_206
*1573 FILLER_0_35_212
*1574 FILLER_0_35_241
*1575 FILLER_0_35_261
*1576 FILLER_0_35_279
*1577 FILLER_0_35_281
*1578 FILLER_0_35_293
*1579 FILLER_0_35_3
*1580 FILLER_0_35_321
*1581 FILLER_0_35_332
*1582 FILLER_0_35_46
*1583 FILLER_0_35_54
*1584 FILLER_0_35_57
*1585 FILLER_0_35_63
*1586 FILLER_0_35_83
*1587 FILLER_0_35_91
*1588 FILLER_0_36_122
*1589 FILLER_0_36_15
*1590 FILLER_0_36_158
*1591 FILLER_0_36_166
*1592 FILLER_0_36_177
*1593 FILLER_0_36_216
*1594 FILLER_0_36_243
*1595 FILLER_0_36_263
*1596 FILLER_0_36_276
*1597 FILLER_0_36_280
*1598 FILLER_0_36_285
*1599 FILLER_0_36_29
*1600 FILLER_0_36_3
*1601 FILLER_0_36_307
*1602 FILLER_0_36_313
*1603 FILLER_0_36_334
*1604 FILLER_0_36_49
*1605 FILLER_0_36_53
*1606 FILLER_0_36_82
*1607 FILLER_0_37_113
*1608 FILLER_0_37_125
*1609 FILLER_0_37_131
*1610 FILLER_0_37_15
*1611 FILLER_0_37_169
*1612 FILLER_0_37_177
*1613 FILLER_0_37_207
*1614 FILLER_0_37_219
*1615 FILLER_0_37_223
*1616 FILLER_0_37_225
*1617 FILLER_0_37_237
*1618 FILLER_0_37_261
*1619 FILLER_0_37_279
*1620 FILLER_0_37_281
*1621 FILLER_0_37_289
*1622 FILLER_0_37_3
*1623 FILLER_0_37_50
*1624 FILLER_0_37_57
*1625 FILLER_0_37_82
*1626 FILLER_0_38_10
*1627 FILLER_0_38_109
*1628 FILLER_0_38_113
*1629 FILLER_0_38_125
*1630 FILLER_0_38_14
*1631 FILLER_0_38_141
*1632 FILLER_0_38_162
*1633 FILLER_0_38_169
*1634 FILLER_0_38_173
*1635 FILLER_0_38_18
*1636 FILLER_0_38_182
*1637 FILLER_0_38_194
*1638 FILLER_0_38_216
*1639 FILLER_0_38_22
*1640 FILLER_0_38_225
*1641 FILLER_0_38_237
*1642 FILLER_0_38_245