*SPEF "ieee 1481-1999"
*DESIGN "tt_um_wokwi_395618714068432897"
*DATE "18:16:57 Friday April 19, 2024"
*VENDOR "The OpenROAD Project"
*PROGRAM "OpenROAD"
*VERSION "0889970d1790a2617e69f253221b8bd7626e51dc"
*DESIGN_FLOW "NAME_SCOPE LOCAL" "PIN_CAP NONE"
*DIVIDER /
*DELIMITER :
*BUS_DELIMITER []
*T_UNIT 1 NS
*C_UNIT 1 PF
*R_UNIT 1 OHM
*L_UNIT 1 HENRY

*NAME_MAP
*3 clk
*4 ena
*5 rst_n
*6 ui_in[0]
*7 ui_in[1]
*8 ui_in[2]
*9 ui_in[3]
*10 ui_in[4]
*11 ui_in[5]
*12 ui_in[6]
*13 ui_in[7]
*14 uio_in[0]
*15 uio_in[1]
*16 uio_in[2]
*17 uio_in[3]
*18 uio_in[4]
*19 uio_in[5]
*20 uio_in[6]
*21 uio_in[7]
*22 net3
*23 net4
*24 net5
*25 net6
*26 net7
*27 net8
*28 net9
*29 net10
*30 net11
*31 net12
*32 net13
*33 net14
*34 net15
*35 net16
*36 net17
*37 net18
*38 uo_out[0]
*39 uo_out[1]
*40 uo_out[2]
*41 uo_out[3]
*42 uo_out[4]
*43 uo_out[5]
*44 uo_out[6]
*45 uo_out[7]
*46 _00_
*47 _01_
*48 _02_
*49 _03_
*50 _04_
*51 _05_
*52 _06_
*53 _07_
*54 _08_
*55 _09_
*56 _10_
*57 _11_
*58 _12_
*59 _13_
*60 _14_
*61 _15_
*62 clknet_0_clk
*63 clknet_2_0__leaf_clk
*64 clknet_2_1__leaf_clk
*65 clknet_2_2__leaf_clk
*66 clknet_2_3__leaf_clk
*67 flipflop1\.d
*68 flipflop1\.q
*69 flipflop10\.d
*70 flipflop10\.q
*71 flipflop11\.q
*72 flipflop12\.q
*73 flipflop13\.q
*74 flipflop14\.q
*75 flipflop15\.q
*76 flipflop16\.q
*77 flipflop17\.q
*78 flipflop18\.q
*79 flipflop19\.q
*80 flipflop2\.q
*81 flipflop20\.q
*82 flipflop21\.d
*83 flipflop21\.q
*84 flipflop23\.q
*85 flipflop24\.q
*86 flipflop25\.q
*87 flipflop26\.q
*88 flipflop27\.q
*89 flipflop28\.q
*90 flipflop29\.q
*91 flipflop3\.q
*92 flipflop30\.q
*93 flipflop31\.q
*94 flipflop32\.q
*95 flipflop4\.q
*96 flipflop5\.d
*97 flipflop5\.q
*98 flipflop7\.q
*99 flipflop8\.q
*100 net1
*101 net19
*102 net2
*103 net20
*104 net21
*105 net22
*106 net23
*107 net24
*108 net25
*109 net26
*110 net27
*111 net28
*112 net29
*113 net30
*114 net31
*115 net32
*116 net33
*117 net34
*118 net35
*119 net36
*120 net37
*121 net38
*122 net39
*123 net40
*124 net41
*125 net42
*126 net43
*127 net44
*128 net45
*129 net46
*130 net47
*131 net48
*132 net49
*133 FILLER_0_0_109
*134 FILLER_0_0_113
*135 FILLER_0_0_125
*136 FILLER_0_0_137
*137 FILLER_0_0_141
*138 FILLER_0_0_15
*139 FILLER_0_0_153
*140 FILLER_0_0_165
*141 FILLER_0_0_169
*142 FILLER_0_0_181
*143 FILLER_0_0_193
*144 FILLER_0_0_197
*145 FILLER_0_0_209
*146 FILLER_0_0_221
*147 FILLER_0_0_225
*148 FILLER_0_0_237
*149 FILLER_0_0_249
*150 FILLER_0_0_253
*151 FILLER_0_0_265
*152 FILLER_0_0_27
*153 FILLER_0_0_277
*154 FILLER_0_0_281
*155 FILLER_0_0_29
*156 FILLER_0_0_293
*157 FILLER_0_0_3
*158 FILLER_0_0_305
*159 FILLER_0_0_309
*160 FILLER_0_0_321
*161 FILLER_0_0_333
*162 FILLER_0_0_41
*163 FILLER_0_0_53
*164 FILLER_0_0_57
*165 FILLER_0_0_69
*166 FILLER_0_0_81
*167 FILLER_0_0_85
*168 FILLER_0_0_97
*169 FILLER_0_10_109
*170 FILLER_0_10_121
*171 FILLER_0_10_133
*172 FILLER_0_10_139
*173 FILLER_0_10_141
*174 FILLER_0_10_15
*175 FILLER_0_10_153
*176 FILLER_0_10_165
*177 FILLER_0_10_177
*178 FILLER_0_10_189
*179 FILLER_0_10_195
*180 FILLER_0_10_197
*181 FILLER_0_10_209
*182 FILLER_0_10_221
*183 FILLER_0_10_233
*184 FILLER_0_10_245
*185 FILLER_0_10_251
*186 FILLER_0_10_253
*187 FILLER_0_10_265
*188 FILLER_0_10_27
*189 FILLER_0_10_277
*190 FILLER_0_10_289
*191 FILLER_0_10_29
*192 FILLER_0_10_3
*193 FILLER_0_10_301
*194 FILLER_0_10_307
*195 FILLER_0_10_309
*196 FILLER_0_10_321
*197 FILLER_0_10_333
*198 FILLER_0_10_41
*199 FILLER_0_10_53
*200 FILLER_0_10_65
*201 FILLER_0_10_77
*202 FILLER_0_10_83
*203 FILLER_0_10_85
*204 FILLER_0_10_97
*205 FILLER_0_11_105
*206 FILLER_0_11_111
*207 FILLER_0_11_113
*208 FILLER_0_11_125
*209 FILLER_0_11_137
*210 FILLER_0_11_149
*211 FILLER_0_11_15
*212 FILLER_0_11_161
*213 FILLER_0_11_167
*214 FILLER_0_11_169
*215 FILLER_0_11_181
*216 FILLER_0_11_193
*217 FILLER_0_11_205
*218 FILLER_0_11_217
*219 FILLER_0_11_223
*220 FILLER_0_11_225
*221 FILLER_0_11_237
*222 FILLER_0_11_249
*223 FILLER_0_11_261
*224 FILLER_0_11_27
*225 FILLER_0_11_273
*226 FILLER_0_11_279
*227 FILLER_0_11_281
*228 FILLER_0_11_293
*229 FILLER_0_11_3
*230 FILLER_0_11_305
*231 FILLER_0_11_317
*232 FILLER_0_11_329
*233 FILLER_0_11_39
*234 FILLER_0_11_51
*235 FILLER_0_11_55
*236 FILLER_0_11_57
*237 FILLER_0_11_69
*238 FILLER_0_11_81
*239 FILLER_0_11_93
*240 FILLER_0_12_109
*241 FILLER_0_12_121
*242 FILLER_0_12_133
*243 FILLER_0_12_139
*244 FILLER_0_12_141
*245 FILLER_0_12_15
*246 FILLER_0_12_153
*247 FILLER_0_12_165
*248 FILLER_0_12_177
*249 FILLER_0_12_189
*250 FILLER_0_12_195
*251 FILLER_0_12_197
*252 FILLER_0_12_209
*253 FILLER_0_12_221
*254 FILLER_0_12_233
*255 FILLER_0_12_245
*256 FILLER_0_12_251
*257 FILLER_0_12_253
*258 FILLER_0_12_265
*259 FILLER_0_12_27
*260 FILLER_0_12_277
*261 FILLER_0_12_289
*262 FILLER_0_12_29
*263 FILLER_0_12_3
*264 FILLER_0_12_301
*265 FILLER_0_12_307
*266 FILLER_0_12_309
*267 FILLER_0_12_321
*268 FILLER_0_12_333
*269 FILLER_0_12_41
*270 FILLER_0_12_53
*271 FILLER_0_12_65
*272 FILLER_0_12_77
*273 FILLER_0_12_83
*274 FILLER_0_12_85
*275 FILLER_0_12_97
*276 FILLER_0_13_105
*277 FILLER_0_13_111
*278 FILLER_0_13_113
*279 FILLER_0_13_125
*280 FILLER_0_13_137
*281 FILLER_0_13_149
*282 FILLER_0_13_15
*283 FILLER_0_13_161
*284 FILLER_0_13_167
*285 FILLER_0_13_169
*286 FILLER_0_13_181
*287 FILLER_0_13_193
*288 FILLER_0_13_205
*289 FILLER_0_13_217
*290 FILLER_0_13_223
*291 FILLER_0_13_225
*292 FILLER_0_13_237
*293 FILLER_0_13_249
*294 FILLER_0_13_261
*295 FILLER_0_13_27
*296 FILLER_0_13_273
*297 FILLER_0_13_279
*298 FILLER_0_13_281
*299 FILLER_0_13_293
*300 FILLER_0_13_3
*301 FILLER_0_13_305
*302 FILLER_0_13_317
*303 FILLER_0_13_329
*304 FILLER_0_13_39
*305 FILLER_0_13_51
*306 FILLER_0_13_55
*307 FILLER_0_13_57
*308 FILLER_0_13_69
*309 FILLER_0_13_81
*310 FILLER_0_13_93
*311 FILLER_0_14_109
*312 FILLER_0_14_121
*313 FILLER_0_14_133
*314 FILLER_0_14_139
*315 FILLER_0_14_141
*316 FILLER_0_14_15
*317 FILLER_0_14_153
*318 FILLER_0_14_165
*319 FILLER_0_14_177
*320 FILLER_0_14_189
*321 FILLER_0_14_195
*322 FILLER_0_14_197
*323 FILLER_0_14_209
*324 FILLER_0_14_221
*325 FILLER_0_14_233
*326 FILLER_0_14_245
*327 FILLER_0_14_251
*328 FILLER_0_14_253
*329 FILLER_0_14_265
*330 FILLER_0_14_27
*331 FILLER_0_14_277
*332 FILLER_0_14_289
*333 FILLER_0_14_29
*334 FILLER_0_14_3
*335 FILLER_0_14_301
*336 FILLER_0_14_307
*337 FILLER_0_14_309
*338 FILLER_0_14_321
*339 FILLER_0_14_333
*340 FILLER_0_14_41
*341 FILLER_0_14_53
*342 FILLER_0_14_65
*343 FILLER_0_14_77
*344 FILLER_0_14_83
*345 FILLER_0_14_85
*346 FILLER_0_14_97
*347 FILLER_0_15_105
*348 FILLER_0_15_111
*349 FILLER_0_15_113
*350 FILLER_0_15_125
*351 FILLER_0_15_137
*352 FILLER_0_15_149
*353 FILLER_0_15_15
*354 FILLER_0_15_161
*355 FILLER_0_15_167
*356 FILLER_0_15_169
*357 FILLER_0_15_181
*358 FILLER_0_15_193
*359 FILLER_0_15_205
*360 FILLER_0_15_217
*361 FILLER_0_15_223
*362 FILLER_0_15_225
*363 FILLER_0_15_237
*364 FILLER_0_15_249
*365 FILLER_0_15_261
*366 FILLER_0_15_27
*367 FILLER_0_15_273
*368 FILLER_0_15_279
*369 FILLER_0_15_281
*370 FILLER_0_15_293
*371 FILLER_0_15_3
*372 FILLER_0_15_305
*373 FILLER_0_15_317
*374 FILLER_0_15_329
*375 FILLER_0_15_39
*376 FILLER_0_15_51
*377 FILLER_0_15_55
*378 FILLER_0_15_57
*379 FILLER_0_15_69
*380 FILLER_0_15_81
*381 FILLER_0_15_93
*382 FILLER_0_16_109
*383 FILLER_0_16_121
*384 FILLER_0_16_133
*385 FILLER_0_16_139
*386 FILLER_0_16_141
*387 FILLER_0_16_15
*388 FILLER_0_16_153
*389 FILLER_0_16_165
*390 FILLER_0_16_177
*391 FILLER_0_16_189
*392 FILLER_0_16_195
*393 FILLER_0_16_197
*394 FILLER_0_16_209
*395 FILLER_0_16_221
*396 FILLER_0_16_233
*397 FILLER_0_16_245
*398 FILLER_0_16_251
*399 FILLER_0_16_253
*400 FILLER_0_16_265
*401 FILLER_0_16_27
*402 FILLER_0_16_277
*403 FILLER_0_16_289
*404 FILLER_0_16_29
*405 FILLER_0_16_3
*406 FILLER_0_16_301
*407 FILLER_0_16_307
*408 FILLER_0_16_309
*409 FILLER_0_16_321
*410 FILLER_0_16_333
*411 FILLER_0_16_41
*412 FILLER_0_16_53
*413 FILLER_0_16_65
*414 FILLER_0_16_77
*415 FILLER_0_16_83
*416 FILLER_0_16_85
*417 FILLER_0_16_97
*418 FILLER_0_17_105
*419 FILLER_0_17_111
*420 FILLER_0_17_113
*421 FILLER_0_17_125
*422 FILLER_0_17_137
*423 FILLER_0_17_149
*424 FILLER_0_17_15
*425 FILLER_0_17_161
*426 FILLER_0_17_167
*427 FILLER_0_17_169
*428 FILLER_0_17_181
*429 FILLER_0_17_193
*430 FILLER_0_17_205
*431 FILLER_0_17_217
*432 FILLER_0_17_223
*433 FILLER_0_17_225
*434 FILLER_0_17_237
*435 FILLER_0_17_249
*436 FILLER_0_17_261
*437 FILLER_0_17_27
*438 FILLER_0_17_273
*439 FILLER_0_17_279
*440 FILLER_0_17_281
*441 FILLER_0_17_293
*442 FILLER_0_17_3
*443 FILLER_0_17_305
*444 FILLER_0_17_317
*445 FILLER_0_17_329
*446 FILLER_0_17_39
*447 FILLER_0_17_51
*448 FILLER_0_17_55
*449 FILLER_0_17_57
*450 FILLER_0_17_69
*451 FILLER_0_17_81
*452 FILLER_0_17_93
*453 FILLER_0_18_109
*454 FILLER_0_18_121
*455 FILLER_0_18_133
*456 FILLER_0_18_139
*457 FILLER_0_18_141
*458 FILLER_0_18_15
*459 FILLER_0_18_153
*460 FILLER_0_18_165
*461 FILLER_0_18_177
*462 FILLER_0_18_189
*463 FILLER_0_18_195
*464 FILLER_0_18_197
*465 FILLER_0_18_209
*466 FILLER_0_18_221
*467 FILLER_0_18_233
*468 FILLER_0_18_245
*469 FILLER_0_18_251
*470 FILLER_0_18_253
*471 FILLER_0_18_265
*472 FILLER_0_18_27
*473 FILLER_0_18_277
*474 FILLER_0_18_289
*475 FILLER_0_18_29
*476 FILLER_0_18_3
*477 FILLER_0_18_301
*478 FILLER_0_18_307
*479 FILLER_0_18_309
*480 FILLER_0_18_321
*481 FILLER_0_18_333
*482 FILLER_0_18_41
*483 FILLER_0_18_53
*484 FILLER_0_18_65
*485 FILLER_0_18_77
*486 FILLER_0_18_83
*487 FILLER_0_18_85
*488 FILLER_0_18_97
*489 FILLER_0_19_105
*490 FILLER_0_19_111
*491 FILLER_0_19_113
*492 FILLER_0_19_125
*493 FILLER_0_19_137
*494 FILLER_0_19_149
*495 FILLER_0_19_15
*496 FILLER_0_19_161
*497 FILLER_0_19_167
*498 FILLER_0_19_169
*499 FILLER_0_19_181
*500 FILLER_0_19_193
*501 FILLER_0_19_205
*502 FILLER_0_19_217
*503 FILLER_0_19_223
*504 FILLER_0_19_225
*505 FILLER_0_19_237
*506 FILLER_0_19_249
*507 FILLER_0_19_261
*508 FILLER_0_19_27
*509 FILLER_0_19_273
*510 FILLER_0_19_279
*511 FILLER_0_19_281
*512 FILLER_0_19_293
*513 FILLER_0_19_3
*514 FILLER_0_19_305
*515 FILLER_0_19_317
*516 FILLER_0_19_329
*517 FILLER_0_19_39
*518 FILLER_0_19_51
*519 FILLER_0_19_55
*520 FILLER_0_19_57
*521 FILLER_0_19_69
*522 FILLER_0_19_81
*523 FILLER_0_19_93
*524 FILLER_0_1_105
*525 FILLER_0_1_111
*526 FILLER_0_1_113
*527 FILLER_0_1_125
*528 FILLER_0_1_137
*529 FILLER_0_1_149
*530 FILLER_0_1_15
*531 FILLER_0_1_161
*532 FILLER_0_1_167
*533 FILLER_0_1_169
*534 FILLER_0_1_181
*535 FILLER_0_1_193
*536 FILLER_0_1_205
*537 FILLER_0_1_217
*538 FILLER_0_1_223
*539 FILLER_0_1_225
*540 FILLER_0_1_237
*541 FILLER_0_1_249
*542 FILLER_0_1_261
*543 FILLER_0_1_27
*544 FILLER_0_1_273
*545 FILLER_0_1_279
*546 FILLER_0_1_281
*547 FILLER_0_1_293
*548 FILLER_0_1_3
*549 FILLER_0_1_305
*550 FILLER_0_1_317
*551 FILLER_0_1_329
*552 FILLER_0_1_39
*553 FILLER_0_1_51
*554 FILLER_0_1_55
*555 FILLER_0_1_57
*556 FILLER_0_1_69
*557 FILLER_0_1_81
*558 FILLER_0_1_93
*559 FILLER_0_20_109
*560 FILLER_0_20_121
*561 FILLER_0_20_133
*562 FILLER_0_20_139
*563 FILLER_0_20_141
*564 FILLER_0_20_15
*565 FILLER_0_20_153
*566 FILLER_0_20_165
*567 FILLER_0_20_177
*568 FILLER_0_20_189
*569 FILLER_0_20_195
*570 FILLER_0_20_197
*571 FILLER_0_20_209
*572 FILLER_0_20_221
*573 FILLER_0_20_233
*574 FILLER_0_20_245
*575 FILLER_0_20_251
*576 FILLER_0_20_253
*577 FILLER_0_20_265
*578 FILLER_0_20_27
*579 FILLER_0_20_277
*580 FILLER_0_20_289
*581 FILLER_0_20_29
*582 FILLER_0_20_3
*583 FILLER_0_20_301
*584 FILLER_0_20_307
*585 FILLER_0_20_309
*586 FILLER_0_20_321
*587 FILLER_0_20_333
*588 FILLER_0_20_41
*589 FILLER_0_20_53
*590 FILLER_0_20_65
*591 FILLER_0_20_77
*592 FILLER_0_20_83
*593 FILLER_0_20_85
*594 FILLER_0_20_97
*595 FILLER_0_21_105
*596 FILLER_0_21_111
*597 FILLER_0_21_113
*598 FILLER_0_21_125
*599 FILLER_0_21_137
*600 FILLER_0_21_149
*601 FILLER_0_21_15
*602 FILLER_0_21_161
*603 FILLER_0_21_167
*604 FILLER_0_21_169
*605 FILLER_0_21_181
*606 FILLER_0_21_193
*607 FILLER_0_21_205
*608 FILLER_0_21_217
*609 FILLER_0_21_223
*610 FILLER_0_21_225
*611 FILLER_0_21_237
*612 FILLER_0_21_249
*613 FILLER_0_21_261
*614 FILLER_0_21_27
*615 FILLER_0_21_273
*616 FILLER_0_21_279
*617 FILLER_0_21_281
*618 FILLER_0_21_293
*619 FILLER_0_21_3
*620 FILLER_0_21_305
*621 FILLER_0_21_317
*622 FILLER_0_21_329
*623 FILLER_0_21_39
*624 FILLER_0_21_51
*625 FILLER_0_21_55
*626 FILLER_0_21_57
*627 FILLER_0_21_69
*628 FILLER_0_21_81
*629 FILLER_0_21_93
*630 FILLER_0_22_109
*631 FILLER_0_22_121
*632 FILLER_0_22_133
*633 FILLER_0_22_139
*634 FILLER_0_22_141
*635 FILLER_0_22_15
*636 FILLER_0_22_153
*637 FILLER_0_22_165
*638 FILLER_0_22_177
*639 FILLER_0_22_189
*640 FILLER_0_22_195
*641 FILLER_0_22_197
*642 FILLER_0_22_209
*643 FILLER_0_22_221
*644 FILLER_0_22_233
*645 FILLER_0_22_245
*646 FILLER_0_22_251
*647 FILLER_0_22_253
*648 FILLER_0_22_265
*649 FILLER_0_22_27
*650 FILLER_0_22_277
*651 FILLER_0_22_289
*652 FILLER_0_22_29
*653 FILLER_0_22_3
*654 FILLER_0_22_301
*655 FILLER_0_22_307
*656 FILLER_0_22_309
*657 FILLER_0_22_321
*658 FILLER_0_22_333
*659 FILLER_0_22_41
*660 FILLER_0_22_53
*661 FILLER_0_22_65
*662 FILLER_0_22_77
*663 FILLER_0_22_83
*664 FILLER_0_22_85
*665 FILLER_0_22_97
*666 FILLER_0_23_105
*667 FILLER_0_23_111
*668 FILLER_0_23_113
*669 FILLER_0_23_125
*670 FILLER_0_23_137
*671 FILLER_0_23_149
*672 FILLER_0_23_15
*673 FILLER_0_23_161
*674 FILLER_0_23_167
*675 FILLER_0_23_169
*676 FILLER_0_23_181
*677 FILLER_0_23_193
*678 FILLER_0_23_205
*679 FILLER_0_23_217
*680 FILLER_0_23_223
*681 FILLER_0_23_225
*682 FILLER_0_23_237
*683 FILLER_0_23_249
*684 FILLER_0_23_261
*685 FILLER_0_23_27
*686 FILLER_0_23_273
*687 FILLER_0_23_279
*688 FILLER_0_23_281
*689 FILLER_0_23_293
*690 FILLER_0_23_3
*691 FILLER_0_23_305
*692 FILLER_0_23_317
*693 FILLER_0_23_329
*694 FILLER_0_23_39
*695 FILLER_0_23_51
*696 FILLER_0_23_55
*697 FILLER_0_23_57
*698 FILLER_0_23_69
*699 FILLER_0_23_81
*700 FILLER_0_23_93
*701 FILLER_0_24_109
*702 FILLER_0_24_121
*703 FILLER_0_24_133
*704 FILLER_0_24_139
*705 FILLER_0_24_141
*706 FILLER_0_24_15
*707 FILLER_0_24_153
*708 FILLER_0_24_165
*709 FILLER_0_24_177
*710 FILLER_0_24_189
*711 FILLER_0_24_195
*712 FILLER_0_24_197
*713 FILLER_0_24_209
*714 FILLER_0_24_221
*715 FILLER_0_24_233
*716 FILLER_0_24_245
*717 FILLER_0_24_251
*718 FILLER_0_24_253
*719 FILLER_0_24_265
*720 FILLER_0_24_27
*721 FILLER_0_24_277
*722 FILLER_0_24_289
*723 FILLER_0_24_29
*724 FILLER_0_24_3
*725 FILLER_0_24_301
*726 FILLER_0_24_307
*727 FILLER_0_24_309
*728 FILLER_0_24_321
*729 FILLER_0_24_333
*730 FILLER_0_24_41
*731 FILLER_0_24_53
*732 FILLER_0_24_65
*733 FILLER_0_24_77
*734 FILLER_0_24_83
*735 FILLER_0_24_85
*736 FILLER_0_24_97
*737 FILLER_0_25_105
*738 FILLER_0_25_111
*739 FILLER_0_25_113
*740 FILLER_0_25_125
*741 FILLER_0_25_137
*742 FILLER_0_25_149
*743 FILLER_0_25_15
*744 FILLER_0_25_161
*745 FILLER_0_25_167
*746 FILLER_0_25_169
*747 FILLER_0_25_181
*748 FILLER_0_25_193
*749 FILLER_0_25_205
*750 FILLER_0_25_217
*751 FILLER_0_25_223
*752 FILLER_0_25_225
*753 FILLER_0_25_237
*754 FILLER_0_25_249
*755 FILLER_0_25_261
*756 FILLER_0_25_27
*757 FILLER_0_25_273
*758 FILLER_0_25_279
*759 FILLER_0_25_281
*760 FILLER_0_25_293
*761 FILLER_0_25_3
*762 FILLER_0_25_305
*763 FILLER_0_25_317
*764 FILLER_0_25_329
*765 FILLER_0_25_39
*766 FILLER_0_25_51
*767 FILLER_0_25_55
*768 FILLER_0_25_57
*769 FILLER_0_25_69
*770 FILLER_0_25_81
*771 FILLER_0_25_93
*772 FILLER_0_26_109
*773 FILLER_0_26_121
*774 FILLER_0_26_133
*775 FILLER_0_26_139
*776 FILLER_0_26_141
*777 FILLER_0_26_15
*778 FILLER_0_26_153
*779 FILLER_0_26_165
*780 FILLER_0_26_177
*781 FILLER_0_26_189
*782 FILLER_0_26_195
*783 FILLER_0_26_197
*784 FILLER_0_26_209
*785 FILLER_0_26_221
*786 FILLER_0_26_233
*787 FILLER_0_26_245
*788 FILLER_0_26_251
*789 FILLER_0_26_253
*790 FILLER_0_26_265
*791 FILLER_0_26_27
*792 FILLER_0_26_277
*793 FILLER_0_26_289
*794 FILLER_0_26_29
*795 FILLER_0_26_3
*796 FILLER_0_26_301
*797 FILLER_0_26_307
*798 FILLER_0_26_309
*799 FILLER_0_26_321
*800 FILLER_0_26_333
*801 FILLER_0_26_41
*802 FILLER_0_26_53
*803 FILLER_0_26_65
*804 FILLER_0_26_77
*805 FILLER_0_26_83
*806 FILLER_0_26_85
*807 FILLER_0_26_97
*808 FILLER_0_27_105
*809 FILLER_0_27_111
*810 FILLER_0_27_113
*811 FILLER_0_27_125
*812 FILLER_0_27_137
*813 FILLER_0_27_149
*814 FILLER_0_27_15
*815 FILLER_0_27_161
*816 FILLER_0_27_167
*817 FILLER_0_27_169
*818 FILLER_0_27_181
*819 FILLER_0_27_193
*820 FILLER_0_27_205
*821 FILLER_0_27_217
*822 FILLER_0_27_223
*823 FILLER_0_27_225
*824 FILLER_0_27_237
*825 FILLER_0_27_249
*826 FILLER_0_27_261
*827 FILLER_0_27_27
*828 FILLER_0_27_273
*829 FILLER_0_27_279
*830 FILLER_0_27_281
*831 FILLER_0_27_293
*832 FILLER_0_27_3
*833 FILLER_0_27_305
*834 FILLER_0_27_317
*835 FILLER_0_27_329
*836 FILLER_0_27_39
*837 FILLER_0_27_51
*838 FILLER_0_27_55
*839 FILLER_0_27_57
*840 FILLER_0_27_69
*841 FILLER_0_27_81
*842 FILLER_0_27_93
*843 FILLER_0_28_109
*844 FILLER_0_28_121
*845 FILLER_0_28_133
*846 FILLER_0_28_139
*847 FILLER_0_28_141
*848 FILLER_0_28_15
*849 FILLER_0_28_153
*850 FILLER_0_28_165
*851 FILLER_0_28_177
*852 FILLER_0_28_189
*853 FILLER_0_28_195
*854 FILLER_0_28_197
*855 FILLER_0_28_209
*856 FILLER_0_28_221
*857 FILLER_0_28_233
*858 FILLER_0_28_245
*859 FILLER_0_28_251
*860 FILLER_0_28_253
*861 FILLER_0_28_265
*862 FILLER_0_28_27
*863 FILLER_0_28_277
*864 FILLER_0_28_289
*865 FILLER_0_28_29
*866 FILLER_0_28_3
*867 FILLER_0_28_301
*868 FILLER_0_28_307
*869 FILLER_0_28_309
*870 FILLER_0_28_321
*871 FILLER_0_28_333
*872 FILLER_0_28_41
*873 FILLER_0_28_53
*874 FILLER_0_28_65
*875 FILLER_0_28_77
*876 FILLER_0_28_83
*877 FILLER_0_28_85
*878 FILLER_0_28_97
*879 FILLER_0_29_105
*880 FILLER_0_29_111
*881 FILLER_0_29_113
*882 FILLER_0_29_15
*883 FILLER_0_29_157
*884 FILLER_0_29_165
*885 FILLER_0_29_169
*886 FILLER_0_29_181
*887 FILLER_0_29_211
*888 FILLER_0_29_223
*889 FILLER_0_29_225
*890 FILLER_0_29_237
*891 FILLER_0_29_249
*892 FILLER_0_29_261
*893 FILLER_0_29_27
*894 FILLER_0_29_273
*895 FILLER_0_29_279
*896 FILLER_0_29_281
*897 FILLER_0_29_293
*898 FILLER_0_29_3
*899 FILLER_0_29_305
*900 FILLER_0_29_317
*901 FILLER_0_29_329
*902 FILLER_0_29_39
*903 FILLER_0_29_51
*904 FILLER_0_29_55
*905 FILLER_0_29_57
*906 FILLER_0_29_69
*907 FILLER_0_29_81
*908 FILLER_0_29_93
*909 FILLER_0_2_109
*910 FILLER_0_2_121
*911 FILLER_0_2_133
*912 FILLER_0_2_139
*913 FILLER_0_2_141
*914 FILLER_0_2_15
*915 FILLER_0_2_153
*916 FILLER_0_2_165
*917 FILLER_0_2_177
*918 FILLER_0_2_189
*919 FILLER_0_2_195
*920 FILLER_0_2_197
*921 FILLER_0_2_209
*922 FILLER_0_2_221
*923 FILLER_0_2_233
*924 FILLER_0_2_245
*925 FILLER_0_2_251
*926 FILLER_0_2_253
*927 FILLER_0_2_265
*928 FILLER_0_2_27
*929 FILLER_0_2_277
*930 FILLER_0_2_289
*931 FILLER_0_2_29
*932 FILLER_0_2_3
*933 FILLER_0_2_301
*934 FILLER_0_2_307
*935 FILLER_0_2_309
*936 FILLER_0_2_321
*937 FILLER_0_2_333
*938 FILLER_0_2_41
*939 FILLER_0_2_53
*940 FILLER_0_2_65
*941 FILLER_0_2_77
*942 FILLER_0_2_83
*943 FILLER_0_2_85
*944 FILLER_0_2_97
*945 FILLER_0_30_109
*946 FILLER_0_30_121
*947 FILLER_0_30_141
*948 FILLER_0_30_15
*949 FILLER_0_30_180
*950 FILLER_0_30_213
*951 FILLER_0_30_225
*952 FILLER_0_30_237
*953 FILLER_0_30_249
*954 FILLER_0_30_253
*955 FILLER_0_30_265
*956 FILLER_0_30_27
*957 FILLER_0_30_277
*958 FILLER_0_30_289
*959 FILLER_0_30_29
*960 FILLER_0_30_3
*961 FILLER_0_30_301
*962 FILLER_0_30_307
*963 FILLER_0_30_309
*964 FILLER_0_30_321
*965 FILLER_0_30_333
*966 FILLER_0_30_41
*967 FILLER_0_30_53
*968 FILLER_0_30_65
*969 FILLER_0_30_77
*970 FILLER_0_30_83
*971 FILLER_0_30_85
*972 FILLER_0_30_97
*973 FILLER_0_31_105
*974 FILLER_0_31_111
*975 FILLER_0_31_113
*976 FILLER_0_31_119
*977 FILLER_0_31_15
*978 FILLER_0_31_169
*979 FILLER_0_31_219
*980 FILLER_0_31_223
*981 FILLER_0_31_233
*982 FILLER_0_31_247
*983 FILLER_0_31_259
*984 FILLER_0_31_27
*985 FILLER_0_31_271
*986 FILLER_0_31_279
*987 FILLER_0_31_281
*988 FILLER_0_31_293
*989 FILLER_0_31_3
*990 FILLER_0_31_305
*991 FILLER_0_31_317
*992 FILLER_0_31_329
*993 FILLER_0_31_39
*994 FILLER_0_31_51
*995 FILLER_0_31_55
*996 FILLER_0_31_57
*997 FILLER_0_31_69
*998 FILLER_0_31_81
*999 FILLER_0_31_93
*1000 FILLER_0_32_109
*1001 FILLER_0_32_115
*1002 FILLER_0_32_15
*1003 FILLER_0_32_163
*1004 FILLER_0_32_175
*1005 FILLER_0_32_185
*1006 FILLER_0_32_249
*1007 FILLER_0_32_253
*1008 FILLER_0_32_265
*1009 FILLER_0_32_27
*1010 FILLER_0_32_277
*1011 FILLER_0_32_289
*1012 FILLER_0_32_29
*1013 FILLER_0_32_3
*1014 FILLER_0_32_301
*1015 FILLER_0_32_307
*1016 FILLER_0_32_309
*1017 FILLER_0_32_321
*1018 FILLER_0_32_333
*1019 FILLER_0_32_41
*1020 FILLER_0_32_53
*1021 FILLER_0_32_65
*1022 FILLER_0_32_77
*1023 FILLER_0_32_83
*1024 FILLER_0_32_85
*1025 FILLER_0_32_97
*1026 FILLER_0_33_105
*1027 FILLER_0_33_111
*1028 FILLER_0_33_113
*1029 FILLER_0_33_121
*1030 FILLER_0_33_140
*1031 FILLER_0_33_15
*1032 FILLER_0_33_151
*1033 FILLER_0_33_161
*1034 FILLER_0_33_175
*1035 FILLER_0_33_181
*1036 FILLER_0_33_202
*1037 FILLER_0_33_208
*1038 FILLER_0_33_223
*1039 FILLER_0_33_247
*1040 FILLER_0_33_259
*1041 FILLER_0_33_27
*1042 FILLER_0_33_271
*1043 FILLER_0_33_279
*1044 FILLER_0_33_281
*1045 FILLER_0_33_293
*1046 FILLER_0_33_3
*1047 FILLER_0_33_305
*1048 FILLER_0_33_317
*1049 FILLER_0_33_329
*1050 FILLER_0_33_39
*1051 FILLER_0_33_51
*1052 FILLER_0_33_55
*1053 FILLER_0_33_57
*1054 FILLER_0_33_69
*1055 FILLER_0_33_81
*1056 FILLER_0_33_93
*1057 FILLER_0_34_109
*1058 FILLER_0_34_115
*1059 FILLER_0_34_15
*1060 FILLER_0_34_155
*1061 FILLER_0_34_173
*1062 FILLER_0_34_181
*1063 FILLER_0_34_188
*1064 FILLER_0_34_195
*1065 FILLER_0_34_197
*1066 FILLER_0_34_203
*1067 FILLER_0_34_247
*1068 FILLER_0_34_251
*1069 FILLER_0_34_253
*1070 FILLER_0_34_265
*1071 FILLER_0_34_27
*1072 FILLER_0_34_277
*1073 FILLER_0_34_289
*1074 FILLER_0_34_29
*1075 FILLER_0_34_3
*1076 FILLER_0_34_301
*1077 FILLER_0_34_307
*1078 FILLER_0_34_309
*1079 FILLER_0_34_321
*1080 FILLER_0_34_333
*1081 FILLER_0_34_41
*1082 FILLER_0_34_53
*1083 FILLER_0_34_65
*1084 FILLER_0_34_77
*1085 FILLER_0_34_83
*1086 FILLER_0_34_85
*1087 FILLER_0_34_97
*1088 FILLER_0_35_105
*1089 FILLER_0_35_111
*1090 FILLER_0_35_113
*1091 FILLER_0_35_125
*1092 FILLER_0_35_149
*1093 FILLER_0_35_15
*1094 FILLER_0_35_167
*1095 FILLER_0_35_177
*1096 FILLER_0_35_210
*1097 FILLER_0_35_222
*1098 FILLER_0_35_249
*1099 FILLER_0_35_261
*1100 FILLER_0_35_27
*1101 FILLER_0_35_273
*1102 FILLER_0_35_279
*1103 FILLER_0_35_281
*1104 FILLER_0_35_293
*1105 FILLER_0_35_3
*1106 FILLER_0_35_305
*1107 FILLER_0_35_317
*1108 FILLER_0_35_329
*1109 FILLER_0_35_39
*1110 FILLER_0_35_51
*1111 FILLER_0_35_55
*1112 FILLER_0_35_57
*1113 FILLER_0_35_69
*1114 FILLER_0_35_81
*1115 FILLER_0_35_93
*1116 FILLER_0_36_109
*1117 FILLER_0_36_121
*1118 FILLER_0_36_141
*1119 FILLER_0_36_145
*1120 FILLER_0_36_15
*1121 FILLER_0_36_194
*1122 FILLER_0_36_197
*1123 FILLER_0_36_213
*1124 FILLER_0_36_225
*1125 FILLER_0_36_251
*1126 FILLER_0_36_253
*1127 FILLER_0_36_265
*1128 FILLER_0_36_27
*1129 FILLER_0_36_277
*1130 FILLER_0_36_289
*1131 FILLER_0_36_29
*1132 FILLER_0_36_3
*1133 FILLER_0_36_301
*1134 FILLER_0_36_307
*1135 FILLER_0_36_309
*1136 FILLER_0_36_321
*1137 FILLER_0_36_333
*1138 FILLER_0_36_41
*1139 FILLER_0_36_53
*1140 FILLER_0_36_65
*1141 FILLER_0_36_77
*1142 FILLER_0_36_83
*1143 FILLER_0_36_85
*1144 FILLER_0_36_97
*1145 FILLER_0_37_105
*1146 FILLER_0_37_111
*1147 FILLER_0_37_113
*1148 FILLER_0_37_121
*1149 FILLER_0_37_15
*1150 FILLER_0_37_165
*1151 FILLER_0_37_183
*1152 FILLER_0_37_218
*1153 FILLER_0_37_225
*1154 FILLER_0_37_250
*1155 FILLER_0_37_262
*1156 FILLER_0_37_27
*1157 FILLER_0_37_274
*1158 FILLER_0_37_281
*1159 FILLER_0_37_293
*1160 FILLER_0_37_3
*1161 FILLER_0_37_305
*1162 FILLER_0_37_317
*1163 FILLER_0_37_329
*1164 FILLER_0_37_39
*1165 FILLER_0_37_51
*1166 FILLER_0_37_55
*1167 FILLER_0_37_57
*1168 FILLER_0_37_69
*1169 FILLER_0_37_81
*1170 FILLER_0_37_93
*1171 FILLER_0_38_10
*1172 FILLER_0_38_102
*1173 FILLER_0_38_106
*1174 FILLER_0_38_110
*1175 FILLER_0_38_113
*1176 FILLER_0_38_118
*1177 FILLER_0_38_14
*1178 FILLER_0_38_164
*1179 FILLER_0_38_18
*1180 FILLER_0_38_185
*1181 FILLER_0_38_205
*1182 FILLER_0_38_22
*1183 FILLER_0_38_225
*1184 FILLER_0_38_251
*1185 FILLER_0_38_261
*1186 FILLER_0_38_273
*1187 FILLER_0_38_279
*1188 FILLER_0_38_281
*1189 FILLER_0_38_293
*1190 FILLER_0_38_302
*1191 FILLER_0_38_312
*1192 FILLER_0_38_32
*1193 FILLER_0_38_324
*1194 FILLER_0_38_332
*1195 FILLER_0_38_38
*1196 FILLER_0_38_42
*1197 FILLER_0_38_46
*1198 FILLER_0_38_50
*1199 FILLER_0_38_54
*1200 FILLER_0_38_57
*1201 FILLER_0_38_6
*1202 FILLER_0_38_62
*1203 FILLER_0_38_66
*1204 FILLER_0_38_70
*1205 FILLER_0_38_74
*1206 FILLER_0_38_78
*1207 FILLER_0_38_88
*1208 FILLER_0_38_94
*1209 FILLER_0_38_98
*1210 FILLER_0_3_105
*1211 FILLER_0_3_111
*1212 FILLER_0_3_113
*1213 FILLER_0_3_125
*1214 FILLER_0_3_137
*1215 FILLER_0_3_149
*1216 FILLER_0_3_15
*1217 FILLER_0_3_161
*1218 FILLER_0_3_167
*1219 FILLER_0_3_169
*1220 FILLER_0_3_181
*1221 FILLER_0_3_193
*1222 FILLER_0_3_205
*1223 FILLER_0_3_217
*1224 FILLER_0_3_223
*1225 FILLER_0_3_225
*1226 FILLER_0_3_237
*1227 FILLER_0_3_249
*1228 FILLER_0_3_261
*1229 FILLER_0_3_27
*1230 FILLER_0_3_273
*1231 FILLER_0_3_279
*1232 FILLER_0_3_281
*1233 FILLER_0_3_293
*1234 FILLER_0_3_3
*1235 FILLER_0_3_305
*1236 FILLER_0_3_317
*1237 FILLER_0_3_329
*1238 FILLER_0_3_39
*1239 FILLER_0_3_51
*1240 FILLER_0_3_55
*1241 FILLER_0_3_57
*1242 FILLER_0_3_69
*1243 FILLER_0_3_81
*1244 FILLER_0_3_93
*1245 FILLER_0_4_109
*1246 FILLER_0_4_121
*1247 FILLER_0_4_133
*1248 FILLER_0_4_139
*1249 FILLER_0_4_141
*1250 FILLER_0_4_15
*1251 FILLER_0_4_153
*1252 FILLER_0_4_165
*1253 FILLER_0_4_177
*1254 FILLER_0_4_189
*1255 FILLER_0_4_195
*1256 FILLER_0_4_197
*1257 FILLER_0_4_209
*1258 FILLER_0_4_221
*1259 FILLER_0_4_233
*1260 FILLER_0_4_245
*1261 FILLER_0_4_251
*1262 FILLER_0_4_253
*1263 FILLER_0_4_265
*1264 FILLER_0_4_27
*1265 FILLER_0_4_277
*1266 FILLER_0_4_289
*1267 FILLER_0_4_29
*1268 FILLER_0_4_3
*1269 FILLER_0_4_301
*1270 FILLER_0_4_307
*1271 FILLER_0_4_309
*1272 FILLER_0_4_321
*1273 FILLER_0_4_333
*1274 FILLER_0_4_41
*1275 FILLER_0_4_53
*1276 FILLER_0_4_65
*1277 FILLER_0_4_77
*1278 FILLER_0_4_83
*1279 FILLER_0_4_85
*1280 FILLER_0_4_97
*1281 FILLER_0_5_105
*1282 FILLER_0_5_111
*1283 FILLER_0_5_113
*1284 FILLER_0_5_125
*1285 FILLER_0_5_137
*1286 FILLER_0_5_149
*1287 FILLER_0_5_15
*1288 FILLER_0_5_161
*1289 FILLER_0_5_167
*1290 FILLER_0_5_169
*1291 FILLER_0_5_181
*1292 FILLER_0_5_193
*1293 FILLER_0_5_205
*1294 FILLER_0_5_217
*1295 FILLER_0_5_223
*1296 FILLER_0_5_225
*1297 FILLER_0_5_237
*1298 FILLER_0_5_249
*1299 FILLER_0_5_261
*1300 FILLER_0_5_27
*1301 FILLER_0_5_273
*1302 FILLER_0_5_279
*1303 FILLER_0_5_281
*1304 FILLER_0_5_293
*1305 FILLER_0_5_3
*1306 FILLER_0_5_305
*1307 FILLER_0_5_317
*1308 FILLER_0_5_329
*1309 FILLER_0_5_39
*1310 FILLER_0_5_51
*1311 FILLER_0_5_55
*1312 FILLER_0_5_57
*1313 FILLER_0_5_69
*1314 FILLER_0_5_81
*1315 FILLER_0_5_93
*1316 FILLER_0_6_109
*1317 FILLER_0_6_121
*1318 FILLER_0_6_133
*1319 FILLER_0_6_139
*1320 FILLER_0_6_141
*1321 FILLER_0_6_15
*1322 FILLER_0_6_153
*1323 FILLER_0_6_165
*1324 FILLER_0_6_177
*1325 FILLER_0_6_189
*1326 FILLER_0_6_195
*1327 FILLER_0_6_197
*1328 FILLER_0_6_209
*1329 FILLER_0_6_221
*1330 FILLER_0_6_233
*1331 FILLER_0_6_245
*1332 FILLER_0_6_251
*1333 FILLER_0_6_253
*1334 FILLER_0_6_265
*1335 FILLER_0_6_27
*1336 FILLER_0_6_277
*1337 FILLER_0_6_289
*1338 FILLER_0_6_29
*1339 FILLER_0_6_3
*1340 FILLER_0_6_301
*1341 FILLER_0_6_307
*1342 FILLER_0_6_309
*1343 FILLER_0_6_321
*1344 FILLER_0_6_333
*1345 FILLER_0_6_41
*1346 FILLER_0_6_53
*1347 FILLER_0_6_65
*1348 FILLER_0_6_77
*1349 FILLER_0_6_83
*1350 FILLER_0_6_85
*1351 FILLER_0_6_97
*1352 FILLER_0_7_105
*1353 FILLER_0_7_111
*1354 FILLER_0_7_113
*1355 FILLER_0_7_125
*1356 FILLER_0_7_137
*1357 FILLER_0_7_149
*1358 FILLER_0_7_15
*1359 FILLER_0_7_161
*1360 FILLER_0_7_167
*1361 FILLER_0_7_169
*1362 FILLER_0_7_181
*1363 FILLER_0_7_193
*1364 FILLER_0_7_205
*1365 FILLER_0_7_217
*1366 FILLER_0_7_223
*1367 FILLER_0_7_225
*1368 FILLER_0_7_237
*1369 FILLER_0_7_249
*1370 FILLER_0_7_261
*1371 FILLER_0_7_27
*1372 FILLER_0_7_273
*1373 FILLER_0_7_279
*1374 FILLER_0_7_281
*1375 FILLER_0_7_293
*1376 FILLER_0_7_3
*1377 FILLER_0_7_305
*1378 FILLER_0_7_317
*1379 FILLER_0_7_329
*1380 FILLER_0_7_39
*1381 FILLER_0_7_51
*1382 FILLER_0_7_55
*1383 FILLER_0_7_57
*1384 FILLER_0_7_69
*1385 FILLER_0_7_81
*1386 FILLER_0_7_93
*1387 FILLER_0_8_109
*1388 FILLER_0_8_121
*1389 FILLER_0_8_133
*1390 FILLER_0_8_139
*1391 FILLER_0_8_141
*1392 FILLER_0_8_15
*1393 FILLER_0_8_153
*1394 FILLER_0_8_165
*1395 FILLER_0_8_177
*1396 FILLER_0_8_189
*1397 FILLER_0_8_195
*1398 FILLER_0_8_197
*1399 FILLER_0_8_209
*1400 FILLER_0_8_221
*1401 FILLER_0_8_233
*1402 FILLER_0_8_245
*1403 FILLER_0_8_251
*1404 FILLER_0_8_253
*1405 FILLER_0_8_265
*1406 FILLER_0_8_27
*1407 FILLER_0_8_277
*1408 FILLER_0_8_289
*1409 FILLER_0_8_29
*1410 FILLER_0_8_3
*1411 FILLER_0_8_301
*1412 FILLER_0_8_307
*1413 FILLER_0_8_309
*1414 FILLER_0_8_321
*1415 FILLER_0_8_333
*1416 FILLER_0_8_41
*1417 FILLER_0_8_53
*1418 FILLER_0_8_65
*1419 FILLER_0_8_77
*1420 FILLER_0_8_83
*1421 FILLER_0_8_85
*1422 FILLER_0_8_97
*1423 FILLER_0_9_105
*1424 FILLER_0_9_111
*1425 FILLER_0_9_113
*1426 FILLER_0_9_125
*1427 FILLER_0_9_137
*1428 FILLER_0_9_149
*1429 FILLER_0_9_15
*1430 FILLER_0_9_161
*1431 FILLER_0_9_167
*1432 FILLER_0_9_169
*1433 FILLER_0_9_181
*1434 FILLER_0_9_193
*1435 FILLER_0_9_205
*1436 FILLER_0_9_217
*1437 FILLER_0_9_223
*1438 FILLER_0_9_225
*1439 FILLER_0_9_237
*1440 FILLER_0_9_249
*1441 FILLER_0_9_261
*1442 FILLER_0_9_27
*1443 FILLER_0_9_273
*1444 FILLER_0_9_279
*1445 FILLER_0_9_281
*1446 FILLER_0_9_293
*1447 FILLER_0_9_3
*1448 FILLER_0_9_305
*1449 FILLER_0_9_317
*1450 FILLER_0_9_329
*1451 FILLER_0_9_39
*1452 FILLER_0_9_51
*1453 FILLER_0_9_55
*1454 FILLER_0_9_57
*1455 FILLER_0_9_69
*1456 FILLER_0_9_81
*1457 FILLER_0_9_93
*1458 PHY_EDGE_ROW_0_Left_39
*1459 PHY_EDGE_ROW_0_Right_0
*1460 PHY_EDGE_ROW_10_Left_49
*1461 PHY_EDGE_ROW_10_Right_10
*1462 PHY_EDGE_ROW_11_Left_50
*1463 PHY_EDGE_ROW_11_Right_11
*1464 PHY_EDGE_ROW_12_Left_51
*1465 PHY_EDGE_ROW_12_Right_12
*1466 PHY_EDGE_ROW_13_Left_52
*1467 PHY_EDGE_ROW_13_Right_13
*1468 PHY_EDGE_ROW_14_Left_53
*1469 PHY_EDGE_ROW_14_Right_14
*1470 PHY_EDGE_ROW_15_Left_54
*1471 PHY_EDGE_ROW_15_Right_15
*1472 PHY_EDGE_ROW_16_Left_55