*SPEF "ieee 1481-1999"
*DESIGN "tt_um_coloquinte_moosic"
*DATE "12:39:24 Tuesday April 09, 2024"
*VENDOR "The OpenROAD Project"
*PROGRAM "OpenROAD"
*VERSION "0889970d1790a2617e69f253221b8bd7626e51dc"
*DESIGN_FLOW "NAME_SCOPE LOCAL" "PIN_CAP NONE"
*DIVIDER /
*DELIMITER :
*BUS_DELIMITER []
*T_UNIT 1 NS
*C_UNIT 1 PF
*R_UNIT 1 OHM
*L_UNIT 1 HENRY

*NAME_MAP
*3 clk
*4 ena
*5 rst_n
*6 ui_in[0]
*7 ui_in[1]
*8 ui_in[2]
*9 ui_in[3]
*10 ui_in[4]
*11 ui_in[5]
*12 ui_in[6]
*13 ui_in[7]
*14 uio_in[0]
*15 uio_in[1]
*16 uio_in[2]
*17 uio_in[3]
*18 uio_in[4]
*19 uio_in[5]
*20 uio_in[6]
*21 uio_in[7]
*22 net10
*23 net11
*24 net12
*25 net13
*26 net14
*27 net15
*28 net16
*29 net17
*30 net18
*31 net19
*32 net20
*33 net21
*34 net22
*35 net23
*36 net24
*37 net25
*38 uo_out[0]
*39 uo_out[1]
*40 uo_out[2]
*41 uo_out[3]
*42 uo_out[4]
*43 uo_out[5]
*44 uo_out[6]
*45 uo_out[7]
*46 _000_
*47 _001_
*48 _002_
*49 _003_
*50 _004_
*51 _005_
*52 _006_
*53 _007_
*54 _008_
*55 _009_
*56 _010_
*57 _011_
*58 _012_
*59 _013_
*60 _014_
*61 _015_
*62 _016_
*63 _017_
*64 _018_
*65 _019_
*66 _020_
*67 _021_
*68 _022_
*69 _023_
*70 _024_
*71 _025_
*72 _026_
*73 _027_
*74 _028_
*75 _029_
*76 _030_
*77 _031_
*78 _032_
*79 _033_
*80 _034_
*81 _035_
*82 _036_
*83 _037_
*84 _038_
*85 _039_
*86 _040_
*87 _041_
*88 _042_
*89 _043_
*90 _044_
*91 _045_
*92 _046_
*93 _047_
*94 _048_
*95 c\._08_\[1\]
*96 c\._08_\[2\]
*97 c\._08_\[3\]
*98 c\._08_\[4\]
*99 c\._08_\[5\]
*100 c\._08_\[6\]
*101 c\._08_\[7\]
*102 c\._10_
*103 c\._11_
*104 c\._12_
*105 c\._13_
*106 c\._14_
*107 c\._15_
*108 c\.moosic_key\[0\]
*109 c\.moosic_key\[1\]
*110 c\.moosic_key\[2\]
*111 c\.moosic_key\[3\]
*112 c\.moosic_key\[4\]
*113 c\.moosic_key\[5\]
*114 clknet_0_clk
*115 clknet_1_0__leaf_clk
*116 clknet_1_1__leaf_clk
*117 net1
*118 net2
*119 net26
*120 net27
*121 net28
*122 net29
*123 net3
*124 net30
*125 net31
*126 net32
*127 net4
*128 net5
*129 net6
*130 net7
*131 net8
*132 net9
*133 FILLER_0_0_109
*134 FILLER_0_0_113
*135 FILLER_0_0_125
*136 FILLER_0_0_137
*137 FILLER_0_0_141
*138 FILLER_0_0_15
*139 FILLER_0_0_153
*140 FILLER_0_0_165
*141 FILLER_0_0_169
*142 FILLER_0_0_181
*143 FILLER_0_0_193
*144 FILLER_0_0_197
*145 FILLER_0_0_209
*146 FILLER_0_0_221
*147 FILLER_0_0_225
*148 FILLER_0_0_237
*149 FILLER_0_0_249
*150 FILLER_0_0_253
*151 FILLER_0_0_265
*152 FILLER_0_0_27
*153 FILLER_0_0_277
*154 FILLER_0_0_281
*155 FILLER_0_0_29
*156 FILLER_0_0_293
*157 FILLER_0_0_3
*158 FILLER_0_0_305
*159 FILLER_0_0_309
*160 FILLER_0_0_321
*161 FILLER_0_0_333
*162 FILLER_0_0_41
*163 FILLER_0_0_53
*164 FILLER_0_0_57
*165 FILLER_0_0_69
*166 FILLER_0_0_81
*167 FILLER_0_0_85
*168 FILLER_0_0_97
*169 FILLER_0_10_109
*170 FILLER_0_10_121
*171 FILLER_0_10_133
*172 FILLER_0_10_139
*173 FILLER_0_10_141
*174 FILLER_0_10_15
*175 FILLER_0_10_153
*176 FILLER_0_10_165
*177 FILLER_0_10_177
*178 FILLER_0_10_189
*179 FILLER_0_10_195
*180 FILLER_0_10_197
*181 FILLER_0_10_209
*182 FILLER_0_10_221
*183 FILLER_0_10_233
*184 FILLER_0_10_245
*185 FILLER_0_10_251
*186 FILLER_0_10_253
*187 FILLER_0_10_265
*188 FILLER_0_10_27
*189 FILLER_0_10_277
*190 FILLER_0_10_289
*191 FILLER_0_10_29
*192 FILLER_0_10_3
*193 FILLER_0_10_301
*194 FILLER_0_10_307
*195 FILLER_0_10_309
*196 FILLER_0_10_321
*197 FILLER_0_10_333
*198 FILLER_0_10_41
*199 FILLER_0_10_53
*200 FILLER_0_10_65
*201 FILLER_0_10_77
*202 FILLER_0_10_83
*203 FILLER_0_10_85
*204 FILLER_0_10_97
*205 FILLER_0_11_105
*206 FILLER_0_11_111
*207 FILLER_0_11_113
*208 FILLER_0_11_125
*209 FILLER_0_11_137
*210 FILLER_0_11_149
*211 FILLER_0_11_15
*212 FILLER_0_11_161
*213 FILLER_0_11_167
*214 FILLER_0_11_169
*215 FILLER_0_11_181
*216 FILLER_0_11_193
*217 FILLER_0_11_205
*218 FILLER_0_11_217
*219 FILLER_0_11_223
*220 FILLER_0_11_225
*221 FILLER_0_11_237
*222 FILLER_0_11_249
*223 FILLER_0_11_261
*224 FILLER_0_11_27
*225 FILLER_0_11_273
*226 FILLER_0_11_279
*227 FILLER_0_11_281
*228 FILLER_0_11_293
*229 FILLER_0_11_3
*230 FILLER_0_11_305
*231 FILLER_0_11_317
*232 FILLER_0_11_329
*233 FILLER_0_11_39
*234 FILLER_0_11_51
*235 FILLER_0_11_55
*236 FILLER_0_11_57
*237 FILLER_0_11_69
*238 FILLER_0_11_81
*239 FILLER_0_11_93
*240 FILLER_0_12_109
*241 FILLER_0_12_121
*242 FILLER_0_12_133
*243 FILLER_0_12_139
*244 FILLER_0_12_141
*245 FILLER_0_12_15
*246 FILLER_0_12_153
*247 FILLER_0_12_165
*248 FILLER_0_12_177
*249 FILLER_0_12_189
*250 FILLER_0_12_195
*251 FILLER_0_12_197
*252 FILLER_0_12_209
*253 FILLER_0_12_221
*254 FILLER_0_12_233
*255 FILLER_0_12_245
*256 FILLER_0_12_251
*257 FILLER_0_12_253
*258 FILLER_0_12_265
*259 FILLER_0_12_27
*260 FILLER_0_12_277
*261 FILLER_0_12_289
*262 FILLER_0_12_29
*263 FILLER_0_12_3
*264 FILLER_0_12_301
*265 FILLER_0_12_307
*266 FILLER_0_12_309
*267 FILLER_0_12_321
*268 FILLER_0_12_333
*269 FILLER_0_12_41
*270 FILLER_0_12_53
*271 FILLER_0_12_65
*272 FILLER_0_12_77
*273 FILLER_0_12_83
*274 FILLER_0_12_85
*275 FILLER_0_12_97
*276 FILLER_0_13_105
*277 FILLER_0_13_111
*278 FILLER_0_13_113
*279 FILLER_0_13_125
*280 FILLER_0_13_137
*281 FILLER_0_13_149
*282 FILLER_0_13_15
*283 FILLER_0_13_161
*284 FILLER_0_13_167
*285 FILLER_0_13_169
*286 FILLER_0_13_181
*287 FILLER_0_13_193
*288 FILLER_0_13_205
*289 FILLER_0_13_217
*290 FILLER_0_13_223
*291 FILLER_0_13_225
*292 FILLER_0_13_237
*293 FILLER_0_13_249
*294 FILLER_0_13_261
*295 FILLER_0_13_27
*296 FILLER_0_13_273
*297 FILLER_0_13_279
*298 FILLER_0_13_281
*299 FILLER_0_13_293
*300 FILLER_0_13_3
*301 FILLER_0_13_305
*302 FILLER_0_13_317
*303 FILLER_0_13_329
*304 FILLER_0_13_39
*305 FILLER_0_13_51
*306 FILLER_0_13_55
*307 FILLER_0_13_57
*308 FILLER_0_13_69
*309 FILLER_0_13_81
*310 FILLER_0_13_93
*311 FILLER_0_14_109
*312 FILLER_0_14_121
*313 FILLER_0_14_133
*314 FILLER_0_14_139
*315 FILLER_0_14_141
*316 FILLER_0_14_15
*317 FILLER_0_14_153
*318 FILLER_0_14_165
*319 FILLER_0_14_177
*320 FILLER_0_14_189
*321 FILLER_0_14_195
*322 FILLER_0_14_197
*323 FILLER_0_14_209
*324 FILLER_0_14_221
*325 FILLER_0_14_233
*326 FILLER_0_14_245
*327 FILLER_0_14_251
*328 FILLER_0_14_253
*329 FILLER_0_14_265
*330 FILLER_0_14_27
*331 FILLER_0_14_277
*332 FILLER_0_14_289
*333 FILLER_0_14_29
*334 FILLER_0_14_3
*335 FILLER_0_14_301
*336 FILLER_0_14_307
*337 FILLER_0_14_309
*338 FILLER_0_14_321
*339 FILLER_0_14_333
*340 FILLER_0_14_41
*341 FILLER_0_14_53
*342 FILLER_0_14_65
*343 FILLER_0_14_77
*344 FILLER_0_14_83
*345 FILLER_0_14_85
*346 FILLER_0_14_97
*347 FILLER_0_15_105
*348 FILLER_0_15_111
*349 FILLER_0_15_113
*350 FILLER_0_15_125
*351 FILLER_0_15_137
*352 FILLER_0_15_149
*353 FILLER_0_15_15
*354 FILLER_0_15_161
*355 FILLER_0_15_167
*356 FILLER_0_15_169
*357 FILLER_0_15_181
*358 FILLER_0_15_193
*359 FILLER_0_15_205
*360 FILLER_0_15_217
*361 FILLER_0_15_223
*362 FILLER_0_15_225
*363 FILLER_0_15_237
*364 FILLER_0_15_249
*365 FILLER_0_15_261
*366 FILLER_0_15_27
*367 FILLER_0_15_273
*368 FILLER_0_15_279
*369 FILLER_0_15_281
*370 FILLER_0_15_293
*371 FILLER_0_15_3
*372 FILLER_0_15_305
*373 FILLER_0_15_317
*374 FILLER_0_15_329
*375 FILLER_0_15_39
*376 FILLER_0_15_51
*377 FILLER_0_15_55
*378 FILLER_0_15_57
*379 FILLER_0_15_69
*380 FILLER_0_15_81
*381 FILLER_0_15_93
*382 FILLER_0_16_109
*383 FILLER_0_16_121
*384 FILLER_0_16_133
*385 FILLER_0_16_139
*386 FILLER_0_16_141
*387 FILLER_0_16_15
*388 FILLER_0_16_153
*389 FILLER_0_16_165
*390 FILLER_0_16_177
*391 FILLER_0_16_189
*392 FILLER_0_16_195
*393 FILLER_0_16_197
*394 FILLER_0_16_209
*395 FILLER_0_16_221
*396 FILLER_0_16_233
*397 FILLER_0_16_245
*398 FILLER_0_16_251
*399 FILLER_0_16_253
*400 FILLER_0_16_265
*401 FILLER_0_16_27
*402 FILLER_0_16_277
*403 FILLER_0_16_289
*404 FILLER_0_16_29
*405 FILLER_0_16_3
*406 FILLER_0_16_301
*407 FILLER_0_16_307
*408 FILLER_0_16_309
*409 FILLER_0_16_321
*410 FILLER_0_16_333
*411 FILLER_0_16_41
*412 FILLER_0_16_53
*413 FILLER_0_16_65
*414 FILLER_0_16_77
*415 FILLER_0_16_83
*416 FILLER_0_16_85
*417 FILLER_0_16_97
*418 FILLER_0_17_105
*419 FILLER_0_17_111
*420 FILLER_0_17_113
*421 FILLER_0_17_125
*422 FILLER_0_17_137
*423 FILLER_0_17_149
*424 FILLER_0_17_15
*425 FILLER_0_17_161
*426 FILLER_0_17_167
*427 FILLER_0_17_169
*428 FILLER_0_17_181
*429 FILLER_0_17_193
*430 FILLER_0_17_205
*431 FILLER_0_17_217
*432 FILLER_0_17_223
*433 FILLER_0_17_225
*434 FILLER_0_17_237
*435 FILLER_0_17_249
*436 FILLER_0_17_261
*437 FILLER_0_17_27
*438 FILLER_0_17_273
*439 FILLER_0_17_279
*440 FILLER_0_17_281
*441 FILLER_0_17_293
*442 FILLER_0_17_3
*443 FILLER_0_17_305
*444 FILLER_0_17_317
*445 FILLER_0_17_329
*446 FILLER_0_17_39
*447 FILLER_0_17_51
*448 FILLER_0_17_55
*449 FILLER_0_17_57
*450 FILLER_0_17_69
*451 FILLER_0_17_81
*452 FILLER_0_17_93
*453 FILLER_0_18_109
*454 FILLER_0_18_121
*455 FILLER_0_18_133
*456 FILLER_0_18_139
*457 FILLER_0_18_141
*458 FILLER_0_18_15
*459 FILLER_0_18_153
*460 FILLER_0_18_165
*461 FILLER_0_18_177
*462 FILLER_0_18_189
*463 FILLER_0_18_195
*464 FILLER_0_18_197
*465 FILLER_0_18_209
*466 FILLER_0_18_221
*467 FILLER_0_18_233
*468 FILLER_0_18_245
*469 FILLER_0_18_251
*470 FILLER_0_18_253
*471 FILLER_0_18_265
*472 FILLER_0_18_27
*473 FILLER_0_18_277
*474 FILLER_0_18_289
*475 FILLER_0_18_29
*476 FILLER_0_18_3
*477 FILLER_0_18_301
*478 FILLER_0_18_307
*479 FILLER_0_18_309
*480 FILLER_0_18_321
*481 FILLER_0_18_333
*482 FILLER_0_18_41
*483 FILLER_0_18_53
*484 FILLER_0_18_65
*485 FILLER_0_18_77
*486 FILLER_0_18_83
*487 FILLER_0_18_85
*488 FILLER_0_18_97
*489 FILLER_0_19_105
*490 FILLER_0_19_111
*491 FILLER_0_19_113
*492 FILLER_0_19_125
*493 FILLER_0_19_137
*494 FILLER_0_19_149
*495 FILLER_0_19_15
*496 FILLER_0_19_161
*497 FILLER_0_19_167
*498 FILLER_0_19_169
*499 FILLER_0_19_181
*500 FILLER_0_19_193
*501 FILLER_0_19_205
*502 FILLER_0_19_217
*503 FILLER_0_19_223
*504 FILLER_0_19_225
*505 FILLER_0_19_237
*506 FILLER_0_19_249
*507 FILLER_0_19_261
*508 FILLER_0_19_27
*509 FILLER_0_19_273
*510 FILLER_0_19_279
*511 FILLER_0_19_281
*512 FILLER_0_19_293
*513 FILLER_0_19_3
*514 FILLER_0_19_305
*515 FILLER_0_19_317
*516 FILLER_0_19_329
*517 FILLER_0_19_39
*518 FILLER_0_19_51
*519 FILLER_0_19_55
*520 FILLER_0_19_57
*521 FILLER_0_19_69
*522 FILLER_0_19_81
*523 FILLER_0_19_93
*524 FILLER_0_1_105
*525 FILLER_0_1_111
*526 FILLER_0_1_113
*527 FILLER_0_1_125
*528 FILLER_0_1_137
*529 FILLER_0_1_149
*530 FILLER_0_1_15
*531 FILLER_0_1_161
*532 FILLER_0_1_167
*533 FILLER_0_1_169
*534 FILLER_0_1_181
*535 FILLER_0_1_193
*536 FILLER_0_1_205
*537 FILLER_0_1_217
*538 FILLER_0_1_223
*539 FILLER_0_1_225
*540 FILLER_0_1_237
*541 FILLER_0_1_249
*542 FILLER_0_1_261
*543 FILLER_0_1_27
*544 FILLER_0_1_273
*545 FILLER_0_1_279
*546 FILLER_0_1_281
*547 FILLER_0_1_293
*548 FILLER_0_1_3
*549 FILLER_0_1_305
*550 FILLER_0_1_317
*551 FILLER_0_1_329
*552 FILLER_0_1_39
*553 FILLER_0_1_51
*554 FILLER_0_1_55
*555 FILLER_0_1_57
*556 FILLER_0_1_69
*557 FILLER_0_1_81
*558 FILLER_0_1_93
*559 FILLER_0_20_109
*560 FILLER_0_20_121
*561 FILLER_0_20_133
*562 FILLER_0_20_139
*563 FILLER_0_20_141
*564 FILLER_0_20_15
*565 FILLER_0_20_153
*566 FILLER_0_20_165
*567 FILLER_0_20_177
*568 FILLER_0_20_189
*569 FILLER_0_20_195
*570 FILLER_0_20_197
*571 FILLER_0_20_209
*572 FILLER_0_20_221
*573 FILLER_0_20_233
*574 FILLER_0_20_245
*575 FILLER_0_20_251
*576 FILLER_0_20_253
*577 FILLER_0_20_265
*578 FILLER_0_20_27
*579 FILLER_0_20_277
*580 FILLER_0_20_289
*581 FILLER_0_20_29
*582 FILLER_0_20_3
*583 FILLER_0_20_301
*584 FILLER_0_20_307
*585 FILLER_0_20_309
*586 FILLER_0_20_321
*587 FILLER_0_20_333
*588 FILLER_0_20_41
*589 FILLER_0_20_53
*590 FILLER_0_20_65
*591 FILLER_0_20_77
*592 FILLER_0_20_83
*593 FILLER_0_20_85
*594 FILLER_0_20_97
*595 FILLER_0_21_105
*596 FILLER_0_21_111
*597 FILLER_0_21_113
*598 FILLER_0_21_125
*599 FILLER_0_21_137
*600 FILLER_0_21_149
*601 FILLER_0_21_15
*602 FILLER_0_21_161
*603 FILLER_0_21_167
*604 FILLER_0_21_169
*605 FILLER_0_21_181
*606 FILLER_0_21_193
*607 FILLER_0_21_205
*608 FILLER_0_21_217
*609 FILLER_0_21_223
*610 FILLER_0_21_225
*611 FILLER_0_21_237
*612 FILLER_0_21_249
*613 FILLER_0_21_261
*614 FILLER_0_21_27
*615 FILLER_0_21_273
*616 FILLER_0_21_279
*617 FILLER_0_21_281
*618 FILLER_0_21_293
*619 FILLER_0_21_3
*620 FILLER_0_21_305
*621 FILLER_0_21_317
*622 FILLER_0_21_329
*623 FILLER_0_21_39
*624 FILLER_0_21_51
*625 FILLER_0_21_55
*626 FILLER_0_21_57
*627 FILLER_0_21_69
*628 FILLER_0_21_81
*629 FILLER_0_21_93
*630 FILLER_0_22_109
*631 FILLER_0_22_121
*632 FILLER_0_22_133
*633 FILLER_0_22_139
*634 FILLER_0_22_141
*635 FILLER_0_22_15
*636 FILLER_0_22_153
*637 FILLER_0_22_165
*638 FILLER_0_22_177
*639 FILLER_0_22_189
*640 FILLER_0_22_195
*641 FILLER_0_22_197
*642 FILLER_0_22_209
*643 FILLER_0_22_221
*644 FILLER_0_22_233
*645 FILLER_0_22_245
*646 FILLER_0_22_251
*647 FILLER_0_22_253
*648 FILLER_0_22_265
*649 FILLER_0_22_27
*650 FILLER_0_22_277
*651 FILLER_0_22_289
*652 FILLER_0_22_29
*653 FILLER_0_22_3
*654 FILLER_0_22_301
*655 FILLER_0_22_307
*656 FILLER_0_22_309
*657 FILLER_0_22_321
*658 FILLER_0_22_333
*659 FILLER_0_22_41
*660 FILLER_0_22_53
*661 FILLER_0_22_65
*662 FILLER_0_22_77
*663 FILLER_0_22_83
*664 FILLER_0_22_85
*665 FILLER_0_22_97
*666 FILLER_0_23_105
*667 FILLER_0_23_111
*668 FILLER_0_23_113
*669 FILLER_0_23_125
*670 FILLER_0_23_137
*671 FILLER_0_23_149
*672 FILLER_0_23_15
*673 FILLER_0_23_161
*674 FILLER_0_23_167
*675 FILLER_0_23_169
*676 FILLER_0_23_181
*677 FILLER_0_23_193
*678 FILLER_0_23_205
*679 FILLER_0_23_217
*680 FILLER_0_23_223
*681 FILLER_0_23_225
*682 FILLER_0_23_237
*683 FILLER_0_23_249
*684 FILLER_0_23_261
*685 FILLER_0_23_27
*686 FILLER_0_23_273
*687 FILLER_0_23_279
*688 FILLER_0_23_281
*689 FILLER_0_23_293
*690 FILLER_0_23_3
*691 FILLER_0_23_305
*692 FILLER_0_23_317
*693 FILLER_0_23_329
*694 FILLER_0_23_39
*695 FILLER_0_23_51
*696 FILLER_0_23_55
*697 FILLER_0_23_57
*698 FILLER_0_23_69
*699 FILLER_0_23_81
*700 FILLER_0_23_93
*701 FILLER_0_24_109
*702 FILLER_0_24_121
*703 FILLER_0_24_133
*704 FILLER_0_24_139
*705 FILLER_0_24_141
*706 FILLER_0_24_15
*707 FILLER_0_24_153
*708 FILLER_0_24_165
*709 FILLER_0_24_177
*710 FILLER_0_24_189
*711 FILLER_0_24_195
*712 FILLER_0_24_197
*713 FILLER_0_24_209
*714 FILLER_0_24_221
*715 FILLER_0_24_233
*716 FILLER_0_24_245
*717 FILLER_0_24_251
*718 FILLER_0_24_253
*719 FILLER_0_24_265
*720 FILLER_0_24_27
*721 FILLER_0_24_277
*722 FILLER_0_24_289
*723 FILLER_0_24_29
*724 FILLER_0_24_3
*725 FILLER_0_24_301
*726 FILLER_0_24_307
*727 FILLER_0_24_309
*728 FILLER_0_24_321
*729 FILLER_0_24_333
*730 FILLER_0_24_41
*731 FILLER_0_24_53
*732 FILLER_0_24_65
*733 FILLER_0_24_77
*734 FILLER_0_24_83
*735 FILLER_0_24_85
*736 FILLER_0_24_97
*737 FILLER_0_25_105
*738 FILLER_0_25_111
*739 FILLER_0_25_113
*740 FILLER_0_25_125
*741 FILLER_0_25_137
*742 FILLER_0_25_149
*743 FILLER_0_25_15
*744 FILLER_0_25_161
*745 FILLER_0_25_167
*746 FILLER_0_25_169
*747 FILLER_0_25_181
*748 FILLER_0_25_193
*749 FILLER_0_25_205
*750 FILLER_0_25_217
*751 FILLER_0_25_223
*752 FILLER_0_25_225
*753 FILLER_0_25_237
*754 FILLER_0_25_249
*755 FILLER_0_25_261
*756 FILLER_0_25_27
*757 FILLER_0_25_273
*758 FILLER_0_25_279
*759 FILLER_0_25_281
*760 FILLER_0_25_293
*761 FILLER_0_25_3
*762 FILLER_0_25_305
*763 FILLER_0_25_317
*764 FILLER_0_25_329
*765 FILLER_0_25_39
*766 FILLER_0_25_51
*767 FILLER_0_25_55
*768 FILLER_0_25_57
*769 FILLER_0_25_69
*770 FILLER_0_25_81
*771 FILLER_0_25_93
*772 FILLER_0_26_109
*773 FILLER_0_26_121
*774 FILLER_0_26_133
*775 FILLER_0_26_139
*776 FILLER_0_26_141
*777 FILLER_0_26_15
*778 FILLER_0_26_153
*779 FILLER_0_26_165
*780 FILLER_0_26_177
*781 FILLER_0_26_189
*782 FILLER_0_26_195
*783 FILLER_0_26_197
*784 FILLER_0_26_209
*785 FILLER_0_26_221
*786 FILLER_0_26_233
*787 FILLER_0_26_245
*788 FILLER_0_26_251
*789 FILLER_0_26_253
*790 FILLER_0_26_265
*791 FILLER_0_26_27
*792 FILLER_0_26_277
*793 FILLER_0_26_289
*794 FILLER_0_26_29
*795 FILLER_0_26_3
*796 FILLER_0_26_301
*797 FILLER_0_26_307
*798 FILLER_0_26_309
*799 FILLER_0_26_321
*800 FILLER_0_26_333
*801 FILLER_0_26_41
*802 FILLER_0_26_53
*803 FILLER_0_26_65
*804 FILLER_0_26_77
*805 FILLER_0_26_83
*806 FILLER_0_26_85
*807 FILLER_0_26_97
*808 FILLER_0_27_105
*809 FILLER_0_27_111
*810 FILLER_0_27_113
*811 FILLER_0_27_125
*812 FILLER_0_27_137
*813 FILLER_0_27_149
*814 FILLER_0_27_15
*815 FILLER_0_27_161
*816 FILLER_0_27_167
*817 FILLER_0_27_169
*818 FILLER_0_27_181
*819 FILLER_0_27_193
*820 FILLER_0_27_205
*821 FILLER_0_27_217
*822 FILLER_0_27_223
*823 FILLER_0_27_225
*824 FILLER_0_27_237
*825 FILLER_0_27_249
*826 FILLER_0_27_261
*827 FILLER_0_27_27
*828 FILLER_0_27_273
*829 FILLER_0_27_279
*830 FILLER_0_27_281
*831 FILLER_0_27_293
*832 FILLER_0_27_3
*833 FILLER_0_27_305
*834 FILLER_0_27_317
*835 FILLER_0_27_329
*836 FILLER_0_27_39
*837 FILLER_0_27_51
*838 FILLER_0_27_55
*839 FILLER_0_27_57
*840 FILLER_0_27_69
*841 FILLER_0_27_81
*842 FILLER_0_27_93
*843 FILLER_0_28_109
*844 FILLER_0_28_121
*845 FILLER_0_28_133
*846 FILLER_0_28_139
*847 FILLER_0_28_141
*848 FILLER_0_28_15
*849 FILLER_0_28_153
*850 FILLER_0_28_165
*851 FILLER_0_28_177
*852 FILLER_0_28_189
*853 FILLER_0_28_195
*854 FILLER_0_28_197
*855 FILLER_0_28_209
*856 FILLER_0_28_221
*857 FILLER_0_28_233
*858 FILLER_0_28_245
*859 FILLER_0_28_251
*860 FILLER_0_28_253
*861 FILLER_0_28_265
*862 FILLER_0_28_27
*863 FILLER_0_28_277
*864 FILLER_0_28_289
*865 FILLER_0_28_29
*866 FILLER_0_28_3
*867 FILLER_0_28_301
*868 FILLER_0_28_307
*869 FILLER_0_28_309
*870 FILLER_0_28_321
*871 FILLER_0_28_333
*872 FILLER_0_28_41
*873 FILLER_0_28_53
*874 FILLER_0_28_65
*875 FILLER_0_28_77
*876 FILLER_0_28_83
*877 FILLER_0_28_85
*878 FILLER_0_28_97
*879 FILLER_0_29_105
*880 FILLER_0_29_111
*881 FILLER_0_29_113
*882 FILLER_0_29_125
*883 FILLER_0_29_137
*884 FILLER_0_29_149
*885 FILLER_0_29_15
*886 FILLER_0_29_161
*887 FILLER_0_29_167
*888 FILLER_0_29_169
*889 FILLER_0_29_181
*890 FILLER_0_29_193
*891 FILLER_0_29_205
*892 FILLER_0_29_217
*893 FILLER_0_29_223
*894 FILLER_0_29_225
*895 FILLER_0_29_237
*896 FILLER_0_29_249
*897 FILLER_0_29_261
*898 FILLER_0_29_27
*899 FILLER_0_29_273
*900 FILLER_0_29_279
*901 FILLER_0_29_281
*902 FILLER_0_29_293
*903 FILLER_0_29_3
*904 FILLER_0_29_305
*905 FILLER_0_29_317
*906 FILLER_0_29_329
*907 FILLER_0_29_39
*908 FILLER_0_29_51
*909 FILLER_0_29_55
*910 FILLER_0_29_57
*911 FILLER_0_29_69
*912 FILLER_0_29_81
*913 FILLER_0_29_93
*914 FILLER_0_2_109
*915 FILLER_0_2_121
*916 FILLER_0_2_133
*917 FILLER_0_2_139
*918 FILLER_0_2_141
*919 FILLER_0_2_15
*920 FILLER_0_2_153
*921 FILLER_0_2_165
*922 FILLER_0_2_177
*923 FILLER_0_2_189
*924 FILLER_0_2_195
*925 FILLER_0_2_197
*926 FILLER_0_2_209
*927 FILLER_0_2_221
*928 FILLER_0_2_233
*929 FILLER_0_2_245
*930 FILLER_0_2_251
*931 FILLER_0_2_253
*932 FILLER_0_2_265
*933 FILLER_0_2_27
*934 FILLER_0_2_277
*935 FILLER_0_2_289
*936 FILLER_0_2_29
*937 FILLER_0_2_3
*938 FILLER_0_2_301
*939 FILLER_0_2_307
*940 FILLER_0_2_309
*941 FILLER_0_2_321
*942 FILLER_0_2_333
*943 FILLER_0_2_41
*944 FILLER_0_2_53
*945 FILLER_0_2_65
*946 FILLER_0_2_77
*947 FILLER_0_2_83
*948 FILLER_0_2_85
*949 FILLER_0_2_97
*950 FILLER_0_30_109
*951 FILLER_0_30_121
*952 FILLER_0_30_133
*953 FILLER_0_30_139
*954 FILLER_0_30_141
*955 FILLER_0_30_15
*956 FILLER_0_30_153
*957 FILLER_0_30_165
*958 FILLER_0_30_177
*959 FILLER_0_30_189
*960 FILLER_0_30_195
*961 FILLER_0_30_197
*962 FILLER_0_30_209
*963 FILLER_0_30_221
*964 FILLER_0_30_233
*965 FILLER_0_30_245
*966 FILLER_0_30_251
*967 FILLER_0_30_253
*968 FILLER_0_30_265
*969 FILLER_0_30_27
*970 FILLER_0_30_277
*971 FILLER_0_30_289
*972 FILLER_0_30_29
*973 FILLER_0_30_3
*974 FILLER_0_30_301
*975 FILLER_0_30_307
*976 FILLER_0_30_309
*977 FILLER_0_30_321
*978 FILLER_0_30_333
*979 FILLER_0_30_41
*980 FILLER_0_30_53
*981 FILLER_0_30_65
*982 FILLER_0_30_77
*983 FILLER_0_30_83
*984 FILLER_0_30_85
*985 FILLER_0_30_97
*986 FILLER_0_31_105
*987 FILLER_0_31_111
*988 FILLER_0_31_113
*989 FILLER_0_31_125
*990 FILLER_0_31_137
*991 FILLER_0_31_149
*992 FILLER_0_31_15
*993 FILLER_0_31_161
*994 FILLER_0_31_167
*995 FILLER_0_31_169
*996 FILLER_0_31_181
*997 FILLER_0_31_193
*998 FILLER_0_31_205
*999 FILLER_0_31_217
*1000 FILLER_0_31_223
*1001 FILLER_0_31_225
*1002 FILLER_0_31_237
*1003 FILLER_0_31_249
*1004 FILLER_0_31_261
*1005 FILLER_0_31_27
*1006 FILLER_0_31_273
*1007 FILLER_0_31_279
*1008 FILLER_0_31_281
*1009 FILLER_0_31_293
*1010 FILLER_0_31_3
*1011 FILLER_0_31_305
*1012 FILLER_0_31_317
*1013 FILLER_0_31_329
*1014 FILLER_0_31_39
*1015 FILLER_0_31_51
*1016 FILLER_0_31_55
*1017 FILLER_0_31_57
*1018 FILLER_0_31_69
*1019 FILLER_0_31_81
*1020 FILLER_0_31_93
*1021 FILLER_0_32_109
*1022 FILLER_0_32_121
*1023 FILLER_0_32_133
*1024 FILLER_0_32_139
*1025 FILLER_0_32_141
*1026 FILLER_0_32_15
*1027 FILLER_0_32_153
*1028 FILLER_0_32_170
*1029 FILLER_0_32_182
*1030 FILLER_0_32_194
*1031 FILLER_0_32_201
*1032 FILLER_0_32_214
*1033 FILLER_0_32_226
*1034 FILLER_0_32_238
*1035 FILLER_0_32_250
*1036 FILLER_0_32_253
*1037 FILLER_0_32_265
*1038 FILLER_0_32_27
*1039 FILLER_0_32_277
*1040 FILLER_0_32_289
*1041 FILLER_0_32_29
*1042 FILLER_0_32_3
*1043 FILLER_0_32_301
*1044 FILLER_0_32_307
*1045 FILLER_0_32_309
*1046 FILLER_0_32_321
*1047 FILLER_0_32_333
*1048 FILLER_0_32_41
*1049 FILLER_0_32_53
*1050 FILLER_0_32_65
*1051 FILLER_0_32_77
*1052 FILLER_0_32_83
*1053 FILLER_0_32_85
*1054 FILLER_0_32_97
*1055 FILLER_0_33_105
*1056 FILLER_0_33_111
*1057 FILLER_0_33_113
*1058 FILLER_0_33_125
*1059 FILLER_0_33_137
*1060 FILLER_0_33_145
*1061 FILLER_0_33_15
*1062 FILLER_0_33_155
*1063 FILLER_0_33_166
*1064 FILLER_0_33_184
*1065 FILLER_0_33_222
*1066 FILLER_0_33_225
*1067 FILLER_0_33_229
*1068 FILLER_0_33_233
*1069 FILLER_0_33_241
*1070 FILLER_0_33_258
*1071 FILLER_0_33_27
*1072 FILLER_0_33_270
*1073 FILLER_0_33_279
*1074 FILLER_0_33_297
*1075 FILLER_0_33_3
*1076 FILLER_0_33_309
*1077 FILLER_0_33_321
*1078 FILLER_0_33_333
*1079 FILLER_0_33_39
*1080 FILLER_0_33_51
*1081 FILLER_0_33_55
*1082 FILLER_0_33_57
*1083 FILLER_0_33_69
*1084 FILLER_0_33_81
*1085 FILLER_0_33_93
*1086 FILLER_0_34_109
*1087 FILLER_0_34_121
*1088 FILLER_0_34_133
*1089 FILLER_0_34_139
*1090 FILLER_0_34_15
*1091 FILLER_0_34_171
*1092 FILLER_0_34_179
*1093 FILLER_0_34_193
*1094 FILLER_0_34_197
*1095 FILLER_0_34_209
*1096 FILLER_0_34_221
*1097 FILLER_0_34_242
*1098 FILLER_0_34_250
*1099 FILLER_0_34_27
*1100 FILLER_0_34_29
*1101 FILLER_0_34_293
*1102 FILLER_0_34_3
*1103 FILLER_0_34_305
*1104 FILLER_0_34_309
*1105 FILLER_0_34_321
*1106 FILLER_0_34_333
*1107 FILLER_0_34_41
*1108 FILLER_0_34_53
*1109 FILLER_0_34_65
*1110 FILLER_0_34_77
*1111 FILLER_0_34_83
*1112 FILLER_0_34_85
*1113 FILLER_0_34_97
*1114 FILLER_0_35_105
*1115 FILLER_0_35_111
*1116 FILLER_0_35_113
*1117 FILLER_0_35_125
*1118 FILLER_0_35_137
*1119 FILLER_0_35_141
*1120 FILLER_0_35_15
*1121 FILLER_0_35_166
*1122 FILLER_0_35_172
*1123 FILLER_0_35_210
*1124 FILLER_0_35_245
*1125 FILLER_0_35_269
*1126 FILLER_0_35_27
*1127 FILLER_0_35_299
*1128 FILLER_0_35_3
*1129 FILLER_0_35_311
*1130 FILLER_0_35_323
*1131 FILLER_0_35_39
*1132 FILLER_0_35_51
*1133 FILLER_0_35_55
*1134 FILLER_0_35_57
*1135 FILLER_0_35_69
*1136 FILLER_0_35_81
*1137 FILLER_0_35_93
*1138 FILLER_0_36_109
*1139 FILLER_0_36_121
*1140 FILLER_0_36_139
*1141 FILLER_0_36_141
*1142 FILLER_0_36_15
*1143 FILLER_0_36_156
*1144 FILLER_0_36_194
*1145 FILLER_0_36_251
*1146 FILLER_0_36_253
*1147 FILLER_0_36_27
*1148 FILLER_0_36_273
*1149 FILLER_0_36_281
*1150 FILLER_0_36_288
*1151 FILLER_0_36_29
*1152 FILLER_0_36_3
*1153 FILLER_0_36_300
*1154 FILLER_0_36_309
*1155 FILLER_0_36_321
*1156 FILLER_0_36_333
*1157 FILLER_0_36_41
*1158 FILLER_0_36_53
*1159 FILLER_0_36_65
*1160 FILLER_0_36_77
*1161 FILLER_0_36_83
*1162 FILLER_0_36_85
*1163 FILLER_0_36_97
*1164 FILLER_0_37_105
*1165 FILLER_0_37_111
*1166 FILLER_0_37_113
*1167 FILLER_0_37_125
*1168 FILLER_0_37_15
*1169 FILLER_0_37_166
*1170 FILLER_0_37_216
*1171 FILLER_0_37_221
*1172 FILLER_0_37_241
*1173 FILLER_0_37_248
*1174 FILLER_0_37_27
*1175 FILLER_0_37_279
*1176 FILLER_0_37_281
*1177 FILLER_0_37_3
*1178 FILLER_0_37_305
*1179 FILLER_0_37_317
*1180 FILLER_0_37_329
*1181 FILLER_0_37_39
*1182 FILLER_0_37_51
*1183 FILLER_0_37_55
*1184 FILLER_0_37_57
*1185 FILLER_0_37_69
*1186 FILLER_0_37_81
*1187 FILLER_0_37_93
*1188 FILLER_0_38_10
*1189 FILLER_0_38_102
*1190 FILLER_0_38_106
*1191 FILLER_0_38_110
*1192 FILLER_0_38_113
*1193 FILLER_0_38_118
*1194 FILLER_0_38_122
*1195 FILLER_0_38_126
*1196 FILLER_0_38_138
*1197 FILLER_0_38_14
*1198 FILLER_0_38_145
*1199 FILLER_0_38_167
*1200 FILLER_0_38_169
*1201 FILLER_0_38_177
*1202 FILLER_0_38_18
*1203 FILLER_0_38_188
*1204 FILLER_0_38_200
*1205 FILLER_0_38_218
*1206 FILLER_0_38_22
*1207 FILLER_0_38_225
*1208 FILLER_0_38_237
*1209 FILLER_0_38_245
*1210 FILLER_0_38_250
*1211 FILLER_0_38_253
*1212 FILLER_0_38_278
*1213 FILLER_0_38_281
*1214 FILLER_0_38_286
*1215 FILLER_0_38_290
*1216 FILLER_0_38_294
*1217 FILLER_0_38_298
*1218 FILLER_0_38_302
*1219 FILLER_0_38_319
*1220 FILLER_0_38_32
*1221 FILLER_0_38_326
*1222 FILLER_0_38_334
*1223 FILLER_0_38_38
*1224 FILLER_0_38_42
*1225 FILLER_0_38_46
*1226 FILLER_0_38_50
*1227 FILLER_0_38_54
*1228 FILLER_0_38_57
*1229 FILLER_0_38_6
*1230 FILLER_0_38_62
*1231 FILLER_0_38_66
*1232 FILLER_0_38_70
*1233 FILLER_0_38_74
*1234 FILLER_0_38_78
*1235 FILLER_0_38_88
*1236 FILLER_0_38_94
*1237 FILLER_0_38_98
*1238 FILLER_0_3_105
*1239 FILLER_0_3_111
*1240 FILLER_0_3_113
*1241 FILLER_0_3_125
*1242 FILLER_0_3_137
*1243 FILLER_0_3_149
*1244 FILLER_0_3_15
*1245 FILLER_0_3_161
*1246 FILLER_0_3_167
*1247 FILLER_0_3_169
*1248 FILLER_0_3_181
*1249 FILLER_0_3_193
*1250 FILLER_0_3_205
*1251 FILLER_0_3_217
*1252 FILLER_0_3_223
*1253 FILLER_0_3_225
*1254 FILLER_0_3_237
*1255 FILLER_0_3_249
*1256 FILLER_0_3_261
*1257 FILLER_0_3_27
*1258 FILLER_0_3_273
*1259 FILLER_0_3_279
*1260 FILLER_0_3_281
*1261 FILLER_0_3_293
*1262 FILLER_0_3_3
*1263 FILLER_0_3_305
*1264 FILLER_0_3_317
*1265 FILLER_0_3_329
*1266 FILLER_0_3_39
*1267 FILLER_0_3_51
*1268 FILLER_0_3_55
*1269 FILLER_0_3_57
*1270 FILLER_0_3_69
*1271 FILLER_0_3_81
*1272 FILLER_0_3_93
*1273 FILLER_0_4_109
*1274 FILLER_0_4_121
*1275 FILLER_0_4_133
*1276 FILLER_0_4_139
*1277 FILLER_0_4_141
*1278 FILLER_0_4_15
*1279 FILLER_0_4_153
*1280 FILLER_0_4_165
*1281 FILLER_0_4_177
*1282 FILLER_0_4_189
*1283 FILLER_0_4_195
*1284 FILLER_0_4_197
*1285 FILLER_0_4_209
*1286 FILLER_0_4_221
*1287 FILLER_0_4_233
*1288 FILLER_0_4_245
*1289 FILLER_0_4_251
*1290 FILLER_0_4_253
*1291 FILLER_0_4_265
*1292 FILLER_0_4_27
*1293 FILLER_0_4_277
*1294 FILLER_0_4_289
*1295 FILLER_0_4_29
*1296 FILLER_0_4_3
*1297 FILLER_0_4_301
*1298 FILLER_0_4_307
*1299 FILLER_0_4_309
*1300 FILLER_0_4_321
*1301 FILLER_0_4_333
*1302 FILLER_0_4_41
*1303 FILLER_0_4_53
*1304 FILLER_0_4_65
*1305 FILLER_0_4_77
*1306 FILLER_0_4_83
*1307 FILLER_0_4_85
*1308 FILLER_0_4_97
*1309 FILLER_0_5_105
*1310 FILLER_0_5_111
*1311 FILLER_0_5_113
*1312 FILLER_0_5_125
*1313 FILLER_0_5_137
*1314 FILLER_0_5_149
*1315 FILLER_0_5_15
*1316 FILLER_0_5_161
*1317 FILLER_0_5_167
*1318 FILLER_0_5_169
*1319 FILLER_0_5_181
*1320 FILLER_0_5_193
*1321 FILLER_0_5_205
*1322 FILLER_0_5_217
*1323 FILLER_0_5_223
*1324 FILLER_0_5_225
*1325 FILLER_0_5_237
*1326 FILLER_0_5_249
*1327 FILLER_0_5_261
*1328 FILLER_0_5_27
*1329 FILLER_0_5_273
*1330 FILLER_0_5_279
*1331 FILLER_0_5_281
*1332 FILLER_0_5_293
*1333 FILLER_0_5_3
*1334 FILLER_0_5_305
*1335 FILLER_0_5_317
*1336 FILLER_0_5_329
*1337 FILLER_0_5_39
*1338 FILLER_0_5_51
*1339 FILLER_0_5_55
*1340 FILLER_0_5_57
*1341 FILLER_0_5_69
*1342 FILLER_0_5_81
*1343 FILLER_0_5_93
*1344 FILLER_0_6_109
*1345 FILLER_0_6_121
*1346 FILLER_0_6_133
*1347 FILLER_0_6_139
*1348 FILLER_0_6_141
*1349 FILLER_0_6_15
*1350 FILLER_0_6_153
*1351 FILLER_0_6_165
*1352 FILLER_0_6_177
*1353 FILLER_0_6_189
*1354 FILLER_0_6_195
*1355 FILLER_0_6_197
*1356 FILLER_0_6_209
*1357 FILLER_0_6_221
*1358 FILLER_0_6_233
*1359 FILLER_0_6_245
*1360 FILLER_0_6_251
*1361 FILLER_0_6_253
*1362 FILLER_0_6_265
*1363 FILLER_0_6_27
*1364 FILLER_0_6_277
*1365 FILLER_0_6_289
*1366 FILLER_0_6_29
*1367 FILLER_0_6_3
*1368 FILLER_0_6_301
*1369 FILLER_0_6_307
*1370 FILLER_0_6_309
*1371 FILLER_0_6_321
*1372 FILLER_0_6_333
*1373 FILLER_0_6_41
*1374 FILLER_0_6_53
*1375 FILLER_0_6_65
*1376 FILLER_0_6_77
*1377 FILLER_0_6_83
*1378 FILLER_0_6_85
*1379 FILLER_0_6_97
*1380 FILLER_0_7_105
*1381 FILLER_0_7_111
*1382 FILLER_0_7_113
*1383 FILLER_0_7_125
*1384 FILLER_0_7_137
*1385 FILLER_0_7_149
*1386 FILLER_0_7_15
*1387 FILLER_0_7_161
*1388 FILLER_0_7_167
*1389 FILLER_0_7_169
*1390 FILLER_0_7_181
*1391 FILLER_0_7_193
*1392 FILLER_0_7_205
*1393 FILLER_0_7_217
*1394 FILLER_0_7_223
*1395 FILLER_0_7_225
*1396 FILLER_0_7_237
*1397 FILLER_0_7_249
*1398 FILLER_0_7_261
*1399 FILLER_0_7_27
*1400 FILLER_0_7_273
*1401 FILLER_0_7_279
*1402 FILLER_0_7_281
*1403 FILLER_0_7_293
*1404 FILLER_0_7_3
*1405 FILLER_0_7_305
*1406 FILLER_0_7_317
*1407 FILLER_0_7_329
*1408 FILLER_0_7_39
*1409 FILLER_0_7_51
*1410 FILLER_0_7_55
*1411 FILLER_0_7_57
*1412 FILLER_0_7_69
*1413 FILLER_0_7_81
*1414 FILLER_0_7_93
*1415 FILLER_0_8_109
*1416 FILLER_0_8_121
*1417 FILLER_0_8_133
*1418 FILLER_0_8_139
*1419 FILLER_0_8_141
*1420 FILLER_0_8_15
*1421 FILLER_0_8_153
*1422 FILLER_0_8_165
*1423 FILLER_0_8_177
*1424 FILLER_0_8_189
*1425 FILLER_0_8_195
*1426 FILLER_0_8_197
*1427 FILLER_0_8_209
*1428 FILLER_0_8_221
*1429 FILLER_0_8_233
*1430 FILLER_0_8_245
*1431 FILLER_0_8_251
*1432 FILLER_0_8_253
*1433 FILLER_0_8_265
*1434 FILLER_0_8_27
*1435 FILLER_0_8_277
*1436 FILLER_0_8_289
*1437 FILLER_0_8_29
*1438 FILLER_0_8_3
*1439 FILLER_0_8_301
*1440 FILLER_0_8_307
*1441 FILLER_0_8_309
*1442 FILLER_0_8_321
*1443 FILLER_0_8_333
*1444 FILLER_0_8_41
*1445 FILLER_0_8_53
*1446 FILLER_0_8_65
*1447 FILLER_0_8_77
*1448 FILLER_0_8_83
*1449 FILLER_0_8_85
*1450 FILLER_0_8_97
*1451 FILLER_0_9_105
*1452 FILLER_0_9_111
*1453 FILLER_0_9_113
*1454 FILLER_0_9_125
*1455 FILLER_0_9_137
*1456 FILLER_0_9_149
*1457 FILLER_0_9_15
*1458 FILLER_0_9_161
*1459 FILLER_0_9_167
*1460 FILLER_0_9_169
*1461 FILLER_0_9_181
*1462 FILLER_0_9_193
*1463 FILLER_0_9_205
*1464 FILLER_0_9_217
*1465 FILLER_0_9_223
*1466 FILLER_0_9_225
*1467 FILLER_0_9_237
*1468 FILLER_0_9_249
*1469 FILLER_0_9_261
*1470 FILLER_0_9_27
*1471 FILLER_0_9_273
*1472 FILLER_0_9_279
*1473 FILLER_0_9_281
*1474 FILLER_0_9_293
*1475 FILLER_0_9_3
*1476 FILLER_0_9_305
*1477 FILLER_0_9_317
*1478 FILLER_0_9_329
*1479 FILLER_0_9_39
*1480 FILLER_0_9_51
*1481 FILLER_0_9_55
*1482 FILLER_0_9_57
*1483 FILLER_0_9_69
*1484 FILLER_0_9_81