*SPEF "ieee 1481-1999"
*DESIGN "tt_um_rgbled_decoder"
*DATE "11:11:11 Fri 11 11, 1111"
*VENDOR "OpenRCX"
*PROGRAM "Parallel Extraction"
*VERSION "1.0"
*DESIGN_FLOW "NAME_SCOPE LOCAL" "PIN_CAP NONE"
*DIVIDER /
*DELIMITER :
*BUS_DELIMITER []
*T_UNIT 1 NS
*C_UNIT 1 PF
*R_UNIT 1 OHM
*L_UNIT 1 HENRY

*NAME_MAP
*3 clk
*4 ena
*5 rst_n
*6 ui_in[0]
*7 ui_in[1]
*8 ui_in[2]
*9 ui_in[3]
*10 ui_in[4]
*11 ui_in[5]
*12 ui_in[6]
*13 ui_in[7]
*14 uio_in[0]
*15 uio_in[1]
*16 uio_in[2]
*17 uio_in[3]
*18 uio_in[4]
*19 uio_in[5]
*20 uio_in[6]
*21 uio_in[7]
*22 net32
*23 net33
*24 net34
*25 net35
*26 net36
*27 net37
*28 net38
*29 net39
*30 net40
*31 net41
*32 net42
*33 net43
*34 net44
*35 net45
*36 net46
*37 net47
*38 uo_out[0]
*39 net48
*40 net49
*41 net50
*42 net51
*43 net52
*44 net53
*45 net54
*46 _0000_
*47 _0001_
*48 _0002_
*49 _0003_
*50 _0004_
*51 _0005_
*52 _0006_
*53 _0007_
*54 _0008_
*55 _0009_
*56 _0010_
*57 _0011_
*58 _0012_
*59 _0013_
*60 _0014_
*61 _0015_
*62 _0016_
*63 _0017_
*64 _0018_
*65 _0019_
*66 _0020_
*67 _0021_
*68 _0022_
*69 _0023_
*70 _0024_
*71 _0025_
*72 _0026_
*73 _0027_
*74 _0028_
*75 _0029_
*76 _0030_
*77 _0031_
*78 _0032_
*79 _0033_
*80 _0034_
*81 _0035_
*82 _0036_
*83 _0037_
*84 _0038_
*85 _0039_
*86 _0040_
*87 _0041_
*88 _0042_
*89 _0043_
*90 _0044_
*91 _0045_
*92 _0046_
*93 _0047_
*94 _0048_
*95 _0049_
*96 _0050_
*97 _0051_
*98 _0052_
*99 _0053_
*100 _0054_
*101 _0055_
*102 _0056_
*103 _0057_
*104 _0058_
*105 _0059_
*106 _0060_
*107 _0061_
*108 _0062_
*109 _0063_
*110 _0064_
*111 _0065_
*112 _0066_
*113 _0067_
*114 _0068_
*115 _0069_
*116 _0070_
*117 _0071_
*118 _0072_
*119 _0073_
*120 _0074_
*121 _0075_
*122 _0076_
*123 _0077_
*124 _0078_
*125 _0079_
*126 _0080_
*127 _0081_
*128 _0082_
*129 _0083_
*130 _0084_
*131 _0085_
*132 _0086_
*133 _0087_
*134 _0088_
*135 _0089_
*136 _0090_
*137 _0091_
*138 _0092_
*139 _0093_
*140 _0094_
*141 _0095_
*142 _0096_
*143 _0097_
*144 _0098_
*145 _0099_
*146 _0100_
*147 _0101_
*148 _0102_
*149 _0103_
*150 _0104_
*151 _0105_
*152 _0106_
*153 _0107_
*154 _0108_
*155 _0109_
*156 _0110_
*157 _0111_
*158 _0112_
*159 _0113_
*160 _0114_
*161 _0115_
*162 _0116_
*163 _0117_
*164 _0118_
*165 _0119_
*166 _0120_
*167 _0121_
*168 _0122_
*169 _0123_
*170 _0124_
*171 _0125_
*172 _0126_
*173 _0127_
*174 _0128_
*175 _0129_
*176 _0130_
*177 _0131_
*178 _0132_
*179 _0133_
*180 _0134_
*181 _0135_
*182 _0136_
*183 _0137_
*184 _0138_
*185 _0139_
*186 _0140_
*187 _0141_
*188 _0142_
*189 _0143_
*190 _0144_
*191 _0145_
*192 _0146_
*193 _0147_
*194 _0148_
*195 _0149_
*196 _0150_
*197 _0151_
*198 _0152_
*199 _0153_
*200 _0154_
*201 _0155_
*202 _0156_
*203 _0157_
*204 _0158_
*205 _0159_
*206 _0160_
*207 _0161_
*208 _0162_
*209 _0163_
*210 _0164_
*211 _0165_
*212 _0166_
*213 _0167_
*214 _0168_
*215 _0169_
*216 _0170_
*217 _0171_
*218 _0172_
*219 _0173_
*220 _0174_
*221 _0175_
*222 _0176_
*223 _0177_
*224 _0178_
*225 _0179_
*226 _0180_
*227 _0181_
*228 _0182_
*229 _0183_
*230 _0184_
*231 _0185_
*232 _0186_
*233 _0187_
*234 _0188_
*235 _0189_
*236 _0190_
*237 _0191_
*238 _0192_
*239 _0193_
*240 _0194_
*241 _0195_
*242 _0196_
*243 _0197_
*244 _0198_
*245 _0199_
*246 _0200_
*247 _0201_
*248 _0202_
*249 _0203_
*250 _0204_
*251 _0205_
*252 _0206_
*253 _0207_
*254 _0208_
*255 _0209_
*256 _0210_
*257 _0211_
*258 _0212_
*259 _0213_
*260 _0214_
*261 _0215_
*262 _0216_
*263 _0217_
*264 _0218_
*265 _0219_
*266 _0220_
*267 _0221_
*268 _0222_
*269 _0223_
*270 _0224_
*271 _0225_
*272 _0226_
*273 _0227_
*274 _0228_
*275 _0229_
*276 _0230_
*277 _0231_
*278 _0232_
*279 _0233_
*280 _0234_
*281 _0235_
*282 _0236_
*283 _0237_
*284 _0238_
*285 _0239_
*286 _0240_
*287 _0241_
*288 _0242_
*289 _0243_
*290 _0244_
*291 _0245_
*292 _0246_
*293 _0247_
*294 _0248_
*295 _0249_
*296 _0250_
*297 _0251_
*298 _0252_
*299 _0253_
*300 _0254_
*301 _0255_
*302 _0256_
*303 _0257_
*304 _0258_
*305 _0259_
*306 _0260_
*307 _0261_
*308 _0262_
*309 _0263_
*310 _0264_
*311 _0265_
*312 _0266_
*313 _0267_
*314 _0268_
*315 _0269_
*316 _0270_
*317 _0271_
*318 _0272_
*319 _0273_
*320 _0274_
*321 _0275_
*322 _0276_
*323 _0277_
*324 _0278_
*325 _0279_
*326 _0280_
*327 _0281_
*328 _0282_
*329 _0283_
*330 _0284_
*331 _0285_
*332 _0286_
*333 _0287_
*334 _0288_
*335 _0289_
*336 _0290_
*337 _0291_
*338 _0292_
*339 _0293_
*340 _0294_
*341 _0295_
*342 _0296_
*343 _0297_
*344 _0298_
*345 _0299_
*346 _0300_
*347 _0301_
*348 _0302_
*349 _0303_
*350 _0304_
*351 _0305_
*352 _0306_
*353 _0307_
*354 _0308_
*355 _0309_
*356 _0310_
*357 _0311_
*358 _0312_
*359 _0313_
*360 _0314_
*361 _0315_
*362 _0316_
*363 _0317_
*364 _0318_
*365 _0319_
*366 _0320_
*367 _0321_
*368 _0322_
*369 _0323_
*370 _0324_
*371 _0325_
*372 _0326_
*373 _0327_
*374 _0328_
*375 _0329_
*376 _0330_
*377 _0331_
*378 _0332_
*379 _0333_
*380 _0334_
*381 _0335_
*382 _0336_
*383 _0337_
*384 _0338_
*385 _0339_
*386 _0340_
*387 _0341_
*388 _0342_
*389 _0343_
*390 _0344_
*391 _0345_
*392 _0346_
*393 _0347_
*394 _0348_
*395 _0349_
*396 _0350_
*397 _0351_
*398 _0352_
*399 _0353_
*400 _0354_
*401 _0355_
*402 _0356_
*403 _0357_
*404 _0358_
*405 _0359_
*406 _0360_
*407 _0361_
*408 _0362_
*409 _0363_
*410 _0364_
*411 _0365_
*412 _0366_
*413 _0367_
*414 _0368_
*415 _0369_
*416 _0370_
*417 _0371_
*418 _0372_
*419 _0373_
*420 _0374_
*421 _0375_
*422 _0376_
*423 _0377_
*424 _0378_
*425 _0379_
*426 _0380_
*427 _0381_
*428 _0382_
*429 _0383_
*430 _0384_
*431 _0385_
*432 _0386_
*433 _0387_
*434 _0388_
*435 _0389_
*436 _0390_
*437 _0391_
*438 _0392_
*439 _0393_
*440 _0394_
*441 _0395_
*442 _0396_
*443 _0397_
*444 _0398_
*445 _0399_
*446 _0400_
*447 _0401_
*448 _0402_
*449 _0403_
*450 _0404_
*451 _0405_
*452 _0406_
*453 _0407_
*454 _0408_
*455 _0409_
*456 _0410_
*457 _0411_
*458 _0412_
*459 _0413_
*460 _0414_
*461 _0415_
*462 _0416_
*463 _0417_
*464 _0418_
*465 _0419_
*466 _0420_
*467 _0421_
*468 _0422_
*469 _0423_
*470 _0424_
*471 _0425_
*472 _0426_
*473 _0427_
*474 _0428_
*475 _0429_
*476 _0430_
*477 _0431_
*478 _0432_
*479 _0433_
*480 _0434_
*481 _0435_
*482 _0436_
*483 _0437_
*484 _0438_
*485 _0439_
*486 _0440_
*487 _0441_
*488 _0442_
*489 _0443_
*490 _0444_
*491 _0445_
*492 _0446_
*493 _0447_
*494 _0448_
*495 _0449_
*496 _0450_
*497 _0451_
*498 _0452_
*499 _0453_
*500 _0454_
*501 _0455_
*502 _0456_
*503 _0457_
*504 _0458_
*505 _0459_
*506 _0460_
*507 _0461_
*508 _0462_
*509 _0463_
*510 _0464_
*511 _0465_
*512 _0466_
*513 _0467_
*514 _0468_
*515 _0469_
*516 _0470_
*517 _0471_
*518 _0472_
*519 _0473_
*520 _0474_
*521 _0475_
*522 _0476_
*523 _0477_
*524 _0478_
*525 _0479_
*526 _0480_
*527 _0481_
*528 _0482_
*529 _0483_
*530 _0484_
*531 _0485_
*532 _0486_
*533 _0487_
*534 _0488_
*535 _0489_
*536 _0490_
*537 _0491_
*538 _0492_
*539 _0493_
*540 _0494_
*541 _0495_
*542 _0496_
*543 _0497_
*544 _0498_
*545 _0499_
*546 _0500_
*547 _0501_
*548 _0502_
*549 _0503_
*550 _0504_
*551 _0505_
*552 _0506_
*553 _0507_
*554 _0508_
*555 _0509_
*556 _0510_
*557 _0511_
*558 _0512_
*559 _0513_
*560 _0514_
*561 _0515_
*562 _0516_
*563 _0517_
*564 _0518_
*565 _0519_
*566 _0520_
*567 _0521_
*568 _0522_
*569 _0523_
*570 _0524_
*571 _0525_
*572 _0526_
*573 _0527_
*574 _0528_
*575 _0529_
*576 _0530_
*577 _0531_
*578 _0532_
*579 _0533_
*580 _0534_
*581 _0535_
*582 _0536_
*583 _0537_
*584 _0538_
*585 _0539_
*586 _0540_
*587 _0541_
*588 _0542_
*589 _0543_
*590 _0544_
*591 _0545_
*592 _0546_
*593 _0547_
*594 _0548_
*595 _0549_
*596 _0550_
*597 _0551_
*598 _0552_
*599 _0553_
*600 _0554_
*601 _0555_
*602 _0556_
*603 _0557_
*604 _0558_
*605 _0559_
*606 _0560_
*607 _0561_
*608 _0562_
*609 _0563_
*610 _0564_
*611 _0565_
*612 _0566_
*613 _0567_
*614 _0568_
*615 _0569_
*616 _0570_
*617 _0571_
*618 _0572_
*619 _0573_
*620 _0574_
*621 _0575_
*622 _0576_
*623 _0577_
*624 _0578_
*625 _0579_
*626 _0580_
*627 _0581_
*628 _0582_
*629 _0583_
*630 _0584_
*631 _0585_
*632 _0586_
*633 _0587_
*634 _0588_
*635 _0589_
*636 _0590_
*637 _0591_
*638 _0592_
*639 _0593_
*640 _0594_
*641 _0595_
*642 _0596_
*643 _0597_
*644 _0598_
*645 _0599_
*646 _0600_
*647 _0601_
*648 _0602_
*649 _0603_
*650 _0604_
*651 _0605_
*652 _0606_
*653 _0607_
*654 _0608_
*655 _0609_
*656 _0610_
*657 _0611_
*658 _0612_
*659 _0613_
*660 _0614_
*661 _0615_
*662 _0616_
*663 _0617_
*664 _0618_
*665 _0619_
*666 _0620_
*667 _0621_
*668 _0622_
*669 _0623_
*670 _0624_
*671 _0625_
*672 _0626_
*673 _0627_
*674 _0628_
*675 _0629_
*676 _0630_
*677 _0631_
*678 _0632_
*679 _0633_
*680 _0634_
*681 _0635_
*682 _0636_
*683 _0637_
*684 _0638_
*685 _0639_
*686 _0640_
*687 _0641_
*688 _0642_
*689 _0643_
*690 _0644_
*691 _0645_
*692 _0646_
*693 _0647_
*694 _0648_
*695 _0649_
*696 _0650_
*697 _0651_
*698 _0652_
*699 _0653_
*700 _0654_
*701 _0655_
*702 _0656_
*703 _0657_
*704 _0658_
*705 _0659_
*706 _0660_
*707 _0661_
*708 _0662_
*709 _0663_
*710 _0664_
*711 _0665_
*712 _0666_
*713 _0667_
*714 _0668_
*715 _0669_
*716 _0670_
*717 _0671_
*718 _0672_
*719 _0673_
*720 _0674_
*721 _0675_
*722 _0676_
*723 _0677_
*724 _0678_
*725 _0679_
*726 _0680_
*727 _0681_
*728 _0682_
*729 _0683_
*730 _0684_
*731 _0685_
*732 _0686_
*733 _0687_
*734 _0688_
*735 _0689_
*736 _0690_
*737 _0691_
*738 _0692_
*739 _0693_
*740 _0694_
*741 _0695_
*742 _0696_
*743 _0697_
*744 _0698_
*745 _0699_
*746 _0700_
*747 _0701_
*748 _0702_
*749 _0703_
*750 _0704_
*751 _0705_
*752 _0706_
*753 _0707_
*754 _0708_
*755 _0709_
*756 _0710_
*757 _0711_
*758 _0712_
*759 _0713_
*760 _0714_
*761 _0715_
*762 _0716_
*763 _0717_
*764 _0718_
*765 _0719_
*766 _0720_
*767 _0721_
*768 _0722_
*769 _0723_
*770 _0724_
*771 _0725_
*772 _0726_
*773 _0727_
*774 _0728_
*775 _0729_
*776 _0730_
*777 _0731_
*778 _0732_
*779 _0733_
*780 _0734_
*781 _0735_
*782 _0736_
*783 _0737_
*784 _0738_
*785 _0739_
*786 _0740_
*787 _0741_
*788 _0742_
*789 _0743_
*790 _0744_
*791 _0745_
*792 _0746_
*793 _0747_
*794 _0748_
*795 _0749_
*796 _0750_
*797 _0751_
*798 _0752_
*799 _0753_
*800 _0754_
*801 _0755_
*802 _0756_
*803 _0757_
*804 _0758_
*805 _0759_
*806 _0760_
*807 _0761_
*808 _0762_
*809 _0763_
*810 _0764_
*811 _0765_
*812 _0766_
*813 _0767_
*814 _0768_
*815 _0769_
*816 _0770_
*817 _0771_
*818 _0772_
*819 _0773_
*820 _0774_
*821 _0775_
*822 _0776_
*823 _0777_
*824 _0778_
*825 _0779_
*826 _0780_
*827 _0781_
*828 _0782_
*829 _0783_
*830 _0784_
*831 _0785_
*832 _0786_
*833 _0787_
*834 _0788_
*835 _0789_
*836 _0790_
*837 _0791_
*838 _0792_
*839 _0793_
*840 _0794_
*841 _0795_
*842 _0796_
*843 _0797_
*844 _0798_
*845 _0799_
*846 _0800_
*847 _0801_
*848 _0802_
*849 _0803_
*850 _0804_
*851 _0805_
*852 _0806_
*853 _0807_
*854 _0808_
*855 _0809_
*856 _0810_
*857 _0811_
*858 _0812_
*859 _0813_
*860 _0814_
*861 _0815_
*862 _0816_
*863 _0817_
*864 _0818_
*865 _0819_
*866 _0820_
*867 _0821_
*868 _0822_
*869 _0823_
*870 _0824_
*871 _0825_
*872 _0826_
*873 _0827_
*874 _0828_
*875 _0829_
*876 _0830_
*877 _0831_
*878 _0832_
*879 _0833_
*880 _0834_
*881 _0835_
*882 clknet_0_clk
*883 clknet_1_0__leaf_clk
*884 clknet_1_1__leaf_clk
*885 net1
*886 net10
*887 net11
*888 net12
*889 net13
*890 net14
*891 net15
*892 net16
*893 net17
*894 net18
*895 net19
*896 net2
*897 net20
*898 net21
*899 net22
*900 net23
*901 net24
*902 net25
*903 net26
*904 net27
*905 net28
*906 net29
*907 net3
*908 net30
*909 net31
*910 net4
*911 net5
*912 net55
*913 net56
*914 net57
*915 net58
*916 net59
*917 net6
*918 net60
*919 net61
*920 net7
*921 net8
*922 net9
*923 rgbled\.bit_cnt\[0\]
*924 rgbled\.bit_cnt\[1\]
*925 rgbled\.bit_cnt\[2\]
*926 rgbled\.bit_cnt\[3\]
*927 rgbled\.bit_cnt\[4\]
*928 rgbled\.bit_cnt\[5\]
*929 rgbled\.bit_cnt\[6\]
*930 rgbled\.bit_cnt\[7\]
*931 rgbled\.data\[0\]
*932 rgbled\.data\[100\]
*933 rgbled\.data\[101\]
*934 rgbled\.data\[102\]
*935 rgbled\.data\[103\]
*936 rgbled\.data\[104\]
*937 rgbled\.data\[105\]
*938 rgbled\.data\[106\]
*939 rgbled\.data\[107\]
*940 rgbled\.data\[108\]
*941 rgbled\.data\[109\]
*942 rgbled\.data\[10\]
*943 rgbled\.data\[110\]
*944 rgbled\.data\[111\]
*945 rgbled\.data\[112\]
*946 rgbled\.data\[113\]
*947 rgbled\.data\[114\]
*948 rgbled\.data\[115\]
*949 rgbled\.data\[116\]
*950 rgbled\.data\[117\]
*951 rgbled\.data\[118\]
*952 rgbled\.data\[119\]
*953 rgbled\.data\[11\]
*954 rgbled\.data\[120\]
*955 rgbled\.data\[121\]
*956 rgbled\.data\[122\]
*957 rgbled\.data\[123\]
*958 rgbled\.data\[124\]
*959 rgbled\.data\[125\]
*960 rgbled\.data\[126\]
*961 rgbled\.data\[127\]
*962 rgbled\.data\[128\]
*963 rgbled\.data\[129\]
*964 rgbled\.data\[12\]
*965 rgbled\.data\[130\]
*966 rgbled\.data\[131\]
*967 rgbled\.data\[132\]
*968 rgbled\.data\[133\]
*969 rgbled\.data\[134\]
*970 rgbled\.data\[135\]
*971 rgbled\.data\[136\]
*972 rgbled\.data\[137\]
*973 rgbled\.data\[138\]
*974 rgbled\.data\[139\]
*975 rgbled\.data\[13\]
*976 rgbled\.data\[140\]
*977 rgbled\.data\[141\]
*978 rgbled\.data\[142\]
*979 rgbled\.data\[143\]
*980 rgbled\.data\[144\]
*981 rgbled\.data\[145\]
*982 rgbled\.data\[146\]
*983 rgbled\.data\[147\]
*984 rgbled\.data\[148\]
*985 rgbled\.data\[149\]
*986 rgbled\.data\[14\]
*987 rgbled\.data\[150\]
*988 rgbled\.data\[151\]
*989 rgbled\.data\[152\]
*990 rgbled\.data\[153\]
*991 rgbled\.data\[154\]
*992 rgbled\.data\[155\]
*993 rgbled\.data\[156\]
*994 rgbled\.data\[157\]
*995 rgbled\.data\[158\]
*996 rgbled\.data\[159\]
*997 rgbled\.data\[15\]
*998 rgbled\.data\[160\]
*999 rgbled\.data\[161\]
*1000 rgbled\.data\[162\]
*1001 rgbled\.data\[163\]
*1002 rgbled\.data\[164\]
*1003 rgbled\.data\[165\]
*1004 rgbled\.data\[166\]
*1005 rgbled\.data\[167\]
*1006 rgbled\.data\[168\]
*1007 rgbled\.data\[169\]
*1008 rgbled\.data\[16\]
*1009 rgbled\.data\[170\]
*1010 rgbled\.data\[171\]
*1011 rgbled\.data\[172\]
*1012 rgbled\.data\[173\]
*1013 rgbled\.data\[174\]
*1014 rgbled\.data\[175\]
*1015 rgbled\.data\[176\]
*1016 rgbled\.data\[177\]
*1017 rgbled\.data\[178\]
*1018 rgbled\.data\[179\]
*1019 rgbled\.data\[17\]
*1020 rgbled\.data\[180\]
*1021 rgbled\.data\[181\]
*1022 rgbled\.data\[182\]
*1023 rgbled\.data\[183\]
*1024 rgbled\.data\[184\]
*1025 rgbled\.data\[185\]
*1026 rgbled\.data\[186\]
*1027 rgbled\.data\[187\]
*1028 rgbled\.data\[188\]
*1029 rgbled\.data\[189\]
*1030 rgbled\.data\[18\]
*1031 rgbled\.data\[190\]
*1032 rgbled\.data\[191\]
*1033 rgbled\.data\[19\]
*1034 rgbled\.data\[1\]
*1035 rgbled\.data\[20\]
*1036 rgbled\.data\[21\]
*1037 rgbled\.data\[22\]
*1038 rgbled\.data\[23\]
*1039 rgbled\.data\[24\]
*1040 rgbled\.data\[25\]
*1041 rgbled\.data\[26\]
*1042 rgbled\.data\[27\]
*1043 rgbled\.data\[28\]
*1044 rgbled\.data\[29\]
*1045 rgbled\.data\[2\]
*1046 rgbled\.data\[30\]
*1047 rgbled\.data\[31\]
*1048 rgbled\.data\[32\]
*1049 rgbled\.data\[33\]
*1050 rgbled\.data\[34\]
*1051 rgbled\.data\[35\]
*1052 rgbled\.data\[36\]
*1053 rgbled\.data\[37\]
*1054 rgbled\.data\[38\]
*1055 rgbled\.data\[39\]
*1056 rgbled\.data\[3\]
*1057 rgbled\.data\[40\]
*1058 rgbled\.data\[41\]
*1059 rgbled\.data\[42\]
*1060 rgbled\.data\[43\]
*1061 rgbled\.data\[44\]
*1062 rgbled\.data\[45\]
*1063 rgbled\.data\[46\]
*1064 rgbled\.data\[47\]
*1065 rgbled\.data\[48\]
*1066 rgbled\.data\[49\]
*1067 rgbled\.data\[4\]
*1068 rgbled\.data\[50\]
*1069 rgbled\.data\[51\]
*1070 rgbled\.data\[52\]
*1071 rgbled\.data\[53\]
*1072 rgbled\.data\[54\]
*1073 rgbled\.data\[55\]
*1074 rgbled\.data\[56\]
*1075 rgbled\.data\[57\]
*1076 rgbled\.data\[58\]
*1077 rgbled\.data\[59\]
*1078 rgbled\.data\[5\]
*1079 rgbled\.data\[60\]
*1080 rgbled\.data\[61\]
*1081 rgbled\.data\[62\]
*1082 rgbled\.data\[63\]
*1083 rgbled\.data\[64\]
*1084 rgbled\.data\[65\]
*1085 rgbled\.data\[66\]
*1086 rgbled\.data\[67\]
*1087 rgbled\.data\[68\]
*1088 rgbled\.data\[69\]
*1089 rgbled\.data\[6\]
*1090 rgbled\.data\[70\]
*1091 rgbled\.data\[71\]
*1092 rgbled\.data\[72\]
*1093 rgbled\.data\[73\]
*1094 rgbled\.data\[74\]
*1095 rgbled\.data\[75\]
*1096 rgbled\.data\[76\]
*1097 rgbled\.data\[77\]
*1098 rgbled\.data\[78\]
*1099 rgbled\.data\[79\]
*1100 rgbled\.data\[7\]
*1101 rgbled\.data\[80\]
*1102 rgbled\.data\[81\]
*1103 rgbled\.data\[82\]
*1104 rgbled\.data\[83\]
*1105 rgbled\.data\[84\]
*1106 rgbled\.data\[85\]
*1107 rgbled\.data\[86\]
*1108 rgbled\.data\[87\]
*1109 rgbled\.data\[88\]
*1110 rgbled\.data\[89\]
*1111 rgbled\.data\[8\]
*1112 rgbled\.data\[90\]
*1113 rgbled\.data\[91\]
*1114 rgbled\.data\[92\]
*1115 rgbled\.data\[93\]
*1116 rgbled\.data\[94\]
*1117 rgbled\.data\[95\]
*1118 rgbled\.data\[96\]
*1119 rgbled\.data\[97\]
*1120 rgbled\.data\[98\]
*1121 rgbled\.data\[99\]
*1122 rgbled\.data\[9\]
*1123 rgbled\.do_res
*1124 rgbled\.led
*1125 rgbled\.timer_cnt\[0\]
*1126 rgbled\.timer_cnt\[1\]
*1127 rgbled\.timer_cnt\[2\]
*1128 rgbled\.timer_cnt\[3\]
*1129 rgbled\.timer_cnt\[4\]
*1130 ANTENNA_1
*1131 FILLER_0_0_109
*1132 FILLER_0_0_113
*1133 FILLER_0_0_125
*1134 FILLER_0_0_137
*1135 FILLER_0_0_141
*1136 FILLER_0_0_15
*1137 FILLER_0_0_153
*1138 FILLER_0_0_165
*1139 FILLER_0_0_169
*1140 FILLER_0_0_181
*1141 FILLER_0_0_193
*1142 FILLER_0_0_197
*1143 FILLER_0_0_209
*1144 FILLER_0_0_221
*1145 FILLER_0_0_225
*1146 FILLER_0_0_237
*1147 FILLER_0_0_249
*1148 FILLER_0_0_253
*1149 FILLER_0_0_265
*1150 FILLER_0_0_27
*1151 FILLER_0_0_277
*1152 FILLER_0_0_281
*1153 FILLER_0_0_29
*1154 FILLER_0_0_293
*1155 FILLER_0_0_3
*1156 FILLER_0_0_305
*1157 FILLER_0_0_309
*1158 FILLER_0_0_321
*1159 FILLER_0_0_333
*1160 FILLER_0_0_41
*1161 FILLER_0_0_53
*1162 FILLER_0_0_57
*1163 FILLER_0_0_69
*1164 FILLER_0_0_81
*1165 FILLER_0_0_85
*1166 FILLER_0_0_97
*1167 FILLER_0_10_125
*1168 FILLER_0_10_141
*1169 FILLER_0_10_156
*1170 FILLER_0_10_18
*1171 FILLER_0_10_188
*1172 FILLER_0_10_197
*1173 FILLER_0_10_222
*1174 FILLER_0_10_269
*1175 FILLER_0_10_288
*1176 FILLER_0_10_29
*1177 FILLER_0_10_3
*1178 FILLER_0_10_306
*1179 FILLER_0_10_47
*1180 FILLER_0_10_59
*1181 FILLER_0_10_70
*1182 FILLER_0_10_94
*1183 FILLER_0_11_109
*1184 FILLER_0_11_130
*1185 FILLER_0_11_166
*1186 FILLER_0_11_172
*1187 FILLER_0_11_190
*1188 FILLER_0_11_217
*1189 FILLER_0_11_223
*1190 FILLER_0_11_231
*1191 FILLER_0_11_24
*1192 FILLER_0_11_243
*1193 FILLER_0_11_253
*1194 FILLER_0_11_270
*1195 FILLER_0_11_3
*1196 FILLER_0_11_300
*1197 FILLER_0_11_312
*1198 FILLER_0_11_332
*1199 FILLER_0_11_39
*1200 FILLER_0_11_50
*1201 FILLER_0_11_76
*1202 FILLER_0_11_93
*1203 FILLER_0_12_112
*1204 FILLER_0_12_13
*1205 FILLER_0_12_141
*1206 FILLER_0_12_17
*1207 FILLER_0_12_217
*1208 FILLER_0_12_245
*1209 FILLER_0_12_27
*1210 FILLER_0_12_280
*1211 FILLER_0_12_3
*1212 FILLER_0_12_309
*1213 FILLER_0_12_326
*1214 FILLER_0_12_334
*1215 FILLER_0_12_66
*1216 FILLER_0_12_7
*1217 FILLER_0_12_70
*1218 FILLER_0_12_82
*1219 FILLER_0_12_90
*1220 FILLER_0_13_102
*1221 FILLER_0_13_110
*1222 FILLER_0_13_113
*1223 FILLER_0_13_138
*1224 FILLER_0_13_161
*1225 FILLER_0_13_167
*1226 FILLER_0_13_174
*1227 FILLER_0_13_194
*1228 FILLER_0_13_20
*1229 FILLER_0_13_222
*1230 FILLER_0_13_270
*1231 FILLER_0_13_290
*1232 FILLER_0_13_294
*1233 FILLER_0_13_3
*1234 FILLER_0_13_30
*1235 FILLER_0_13_309
*1236 FILLER_0_13_315
*1237 FILLER_0_13_42
*1238 FILLER_0_13_46
*1239 FILLER_0_13_50
*1240 FILLER_0_13_54
*1241 FILLER_0_13_66
*1242 FILLER_0_13_72
*1243 FILLER_0_13_81
*1244 FILLER_0_13_94
*1245 FILLER_0_13_98
*1246 FILLER_0_14_104
*1247 FILLER_0_14_108
*1248 FILLER_0_14_12
*1249 FILLER_0_14_128
*1250 FILLER_0_14_139
*1251 FILLER_0_14_150
*1252 FILLER_0_14_182
*1253 FILLER_0_14_193
*1254 FILLER_0_14_218
*1255 FILLER_0_14_246
*1256 FILLER_0_14_253
*1257 FILLER_0_14_271
*1258 FILLER_0_14_293
*1259 FILLER_0_14_3
*1260 FILLER_0_14_330
*1261 FILLER_0_14_334
*1262 FILLER_0_14_45
*1263 FILLER_0_14_67
*1264 FILLER_0_14_85
*1265 FILLER_0_15_106
*1266 FILLER_0_15_113
*1267 FILLER_0_15_123
*1268 FILLER_0_15_129
*1269 FILLER_0_15_151
*1270 FILLER_0_15_157
*1271 FILLER_0_15_165
*1272 FILLER_0_15_177
*1273 FILLER_0_15_183
*1274 FILLER_0_15_19
*1275 FILLER_0_15_193
*1276 FILLER_0_15_201
*1277 FILLER_0_15_222
*1278 FILLER_0_15_230
*1279 FILLER_0_15_25
*1280 FILLER_0_15_256
*1281 FILLER_0_15_260
*1282 FILLER_0_15_270
*1283 FILLER_0_15_278
*1284 FILLER_0_15_284
*1285 FILLER_0_15_66
*1286 FILLER_0_15_72
*1287 FILLER_0_15_78
*1288 FILLER_0_15_88
*1289 FILLER_0_15_96
*1290 FILLER_0_16_107
*1291 FILLER_0_16_12
*1292 FILLER_0_16_131
*1293 FILLER_0_16_137
*1294 FILLER_0_16_147
*1295 FILLER_0_16_166
*1296 FILLER_0_16_183
*1297 FILLER_0_16_187
*1298 FILLER_0_16_191
*1299 FILLER_0_16_197
*1300 FILLER_0_16_212
*1301 FILLER_0_16_220
*1302 FILLER_0_16_224
*1303 FILLER_0_16_23
*1304 FILLER_0_16_237
*1305 FILLER_0_16_253
*1306 FILLER_0_16_261
*1307 FILLER_0_16_268
*1308 FILLER_0_16_27
*1309 FILLER_0_16_3
*1310 FILLER_0_16_300
*1311 FILLER_0_16_309
*1312 FILLER_0_16_333
*1313 FILLER_0_16_45
*1314 FILLER_0_16_63
*1315 FILLER_0_16_72
*1316 FILLER_0_16_94
*1317 FILLER_0_17_105
*1318 FILLER_0_17_111
*1319 FILLER_0_17_113
*1320 FILLER_0_17_13
*1321 FILLER_0_17_132
*1322 FILLER_0_17_157
*1323 FILLER_0_17_169
*1324 FILLER_0_17_179
*1325 FILLER_0_17_183
*1326 FILLER_0_17_198
*1327 FILLER_0_17_235
*1328 FILLER_0_17_249
*1329 FILLER_0_17_276
*1330 FILLER_0_17_3
*1331 FILLER_0_17_312
*1332 FILLER_0_17_36
*1333 FILLER_0_17_54
*1334 FILLER_0_17_63
*1335 FILLER_0_17_69
*1336 FILLER_0_17_7
*1337 FILLER_0_17_95
*1338 FILLER_0_18_102
*1339 FILLER_0_18_125
*1340 FILLER_0_18_131
*1341 FILLER_0_18_174
*1342 FILLER_0_18_21
*1343 FILLER_0_18_251
*1344 FILLER_0_18_261
*1345 FILLER_0_18_27
*1346 FILLER_0_18_270
*1347 FILLER_0_18_29
*1348 FILLER_0_18_3
*1349 FILLER_0_18_305
*1350 FILLER_0_18_333
*1351 FILLER_0_18_52
*1352 FILLER_0_18_64
*1353 FILLER_0_18_83
*1354 FILLER_0_19_148
*1355 FILLER_0_19_185
*1356 FILLER_0_19_208
*1357 FILLER_0_19_231
*1358 FILLER_0_19_239
*1359 FILLER_0_19_26
*1360 FILLER_0_19_260
*1361 FILLER_0_19_270
*1362 FILLER_0_19_274
*1363 FILLER_0_19_284
*1364 FILLER_0_19_3
*1365 FILLER_0_19_308
*1366 FILLER_0_19_48
*1367 FILLER_0_19_57
*1368 FILLER_0_19_93
*1369 FILLER_0_1_105
*1370 FILLER_0_1_111
*1371 FILLER_0_1_113
*1372 FILLER_0_1_125
*1373 FILLER_0_1_137
*1374 FILLER_0_1_149
*1375 FILLER_0_1_15
*1376 FILLER_0_1_161
*1377 FILLER_0_1_167
*1378 FILLER_0_1_169
*1379 FILLER_0_1_181
*1380 FILLER_0_1_193
*1381 FILLER_0_1_205
*1382 FILLER_0_1_217
*1383 FILLER_0_1_223
*1384 FILLER_0_1_225
*1385 FILLER_0_1_237
*1386 FILLER_0_1_249
*1387 FILLER_0_1_261
*1388 FILLER_0_1_27
*1389 FILLER_0_1_273
*1390 FILLER_0_1_279
*1391 FILLER_0_1_281
*1392 FILLER_0_1_293
*1393 FILLER_0_1_3
*1394 FILLER_0_1_305
*1395 FILLER_0_1_317
*1396 FILLER_0_1_329
*1397 FILLER_0_1_39
*1398 FILLER_0_1_51
*1399 FILLER_0_1_55
*1400 FILLER_0_1_57
*1401 FILLER_0_1_69
*1402 FILLER_0_1_81
*1403 FILLER_0_1_93
*1404 FILLER_0_20_100
*1405 FILLER_0_20_115
*1406 FILLER_0_20_128
*1407 FILLER_0_20_134
*1408 FILLER_0_20_141
*1409 FILLER_0_20_162
*1410 FILLER_0_20_174
*1411 FILLER_0_20_186
*1412 FILLER_0_20_194
*1413 FILLER_0_20_20
*1414 FILLER_0_20_205
*1415 FILLER_0_20_212
*1416 FILLER_0_20_220
*1417 FILLER_0_20_251
*1418 FILLER_0_20_258
*1419 FILLER_0_20_270
*1420 FILLER_0_20_278
*1421 FILLER_0_20_288
*1422 FILLER_0_20_29
*1423 FILLER_0_20_294
*1424 FILLER_0_20_3
*1425 FILLER_0_20_304
*1426 FILLER_0_20_309
*1427 FILLER_0_20_333
*1428 FILLER_0_20_39
*1429 FILLER_0_20_47
*1430 FILLER_0_20_51
*1431 FILLER_0_20_77
*1432 FILLER_0_21_110
*1433 FILLER_0_21_14
*1434 FILLER_0_21_145
*1435 FILLER_0_21_178
*1436 FILLER_0_21_18
*1437 FILLER_0_21_207
*1438 FILLER_0_21_223
*1439 FILLER_0_21_225
*1440 FILLER_0_21_253
*1441 FILLER_0_21_275
*1442 FILLER_0_21_279
*1443 FILLER_0_21_296
*1444 FILLER_0_21_3
*1445 FILLER_0_21_313
*1446 FILLER_0_21_38
*1447 FILLER_0_21_55
*1448 FILLER_0_21_80
*1449 FILLER_0_22_101
*1450 FILLER_0_22_105
*1451 FILLER_0_22_123
*1452 FILLER_0_22_134
*1453 FILLER_0_22_157
*1454 FILLER_0_22_165
*1455 FILLER_0_22_177
*1456 FILLER_0_22_191
*1457 FILLER_0_22_195
*1458 FILLER_0_22_197
*1459 FILLER_0_22_205
*1460 FILLER_0_22_218
*1461 FILLER_0_22_22
*1462 FILLER_0_22_224
*1463 FILLER_0_22_256
*1464 FILLER_0_22_29
*1465 FILLER_0_22_309
*1466 FILLER_0_22_33
*1467 FILLER_0_22_330
*1468 FILLER_0_22_334
*1469 FILLER_0_22_41
*1470 FILLER_0_22_61
*1471 FILLER_0_22_67
*1472 FILLER_0_22_77
*1473 FILLER_0_22_88
*1474 FILLER_0_23_100
*1475 FILLER_0_23_110
*1476 FILLER_0_23_119
*1477 FILLER_0_23_126
*1478 FILLER_0_23_13
*1479 FILLER_0_23_144
*1480 FILLER_0_23_155
*1481 FILLER_0_23_159
*1482 FILLER_0_23_185
*1483 FILLER_0_23_214
*1484 FILLER_0_23_278
*1485 FILLER_0_23_289
*1486 FILLER_0_23_3
*1487 FILLER_0_23_307
*1488 FILLER_0_23_332
*1489 FILLER_0_23_44
*1490 FILLER_0_23_7
*1491 FILLER_0_23_73
*1492 FILLER_0_23_77
*1493 FILLER_0_23_94
*1494 FILLER_0_24_116
*1495 FILLER_0_24_134
*1496 FILLER_0_24_146
*1497 FILLER_0_24_177
*1498 FILLER_0_24_185
*1499 FILLER_0_24_195
*1500 FILLER_0_24_203
*1501 FILLER_0_24_227
*1502 FILLER_0_24_245
*1503 FILLER_0_24_253
*1504 FILLER_0_24_29
*1505 FILLER_0_24_321
*1506 FILLER_0_24_44
*1507 FILLER_0_24_55
*1508 FILLER_0_24_73
*1509 FILLER_0_24_90
*1510 FILLER_0_24_94
*1511 FILLER_0_25_111
*1512 FILLER_0_25_113
*1513 FILLER_0_25_129
*1514 FILLER_0_25_15
*1515 FILLER_0_25_154
*1516 FILLER_0_25_169
*1517 FILLER_0_25_212
*1518 FILLER_0_25_230
*1519 FILLER_0_25_249
*1520 FILLER_0_25_265
*1521 FILLER_0_25_274
*1522 FILLER_0_25_281
*1523 FILLER_0_25_291
*1524 FILLER_0_25_3
*1525 FILLER_0_25_309
*1526 FILLER_0_25_57
*1527 FILLER_0_25_79
*1528 FILLER_0_26_154
*1529 FILLER_0_26_158
*1530 FILLER_0_26_180
*1531 FILLER_0_26_192
*1532 FILLER_0_26_213
*1533 FILLER_0_26_221
*1534 FILLER_0_26_23
*1535 FILLER_0_26_234
*1536 FILLER_0_26_240
*1537 FILLER_0_26_285
*1538 FILLER_0_26_29
*1539 FILLER_0_26_3
*1540 FILLER_0_26_306
*1541 FILLER_0_26_333
*1542 FILLER_0_26_47
*1543 FILLER_0_26_65
*1544 FILLER_0_26_76
*1545 FILLER_0_26_80
*1546 FILLER_0_26_90
*1547 FILLER_0_26_98
*1548 FILLER_0_27_102
*1549 FILLER_0_27_110
*1550 FILLER_0_27_113
*1551 FILLER_0_27_128
*1552 FILLER_0_27_14
*1553 FILLER_0_27_167
*1554 FILLER_0_27_191
*1555 FILLER_0_27_204
*1556 FILLER_0_27_208
*1557 FILLER_0_27_220
*1558 FILLER_0_27_25
*1559 FILLER_0_27_281
*1560 FILLER_0_27_3
*1561 FILLER_0_27_38
*1562 FILLER_0_27_48
*1563 FILLER_0_27_57
*1564 FILLER_0_27_74
*1565 FILLER_0_28_124
*1566 FILLER_0_28_135
*1567 FILLER_0_28_139
*1568 FILLER_0_28_141
*1569 FILLER_0_28_157
*1570 FILLER_0_28_172
*1571 FILLER_0_28_195
*1572 FILLER_0_28_197
*1573 FILLER_0_28_21
*1574 FILLER_0_28_219
*1575 FILLER_0_28_225
*1576 FILLER_0_28_229
*1577 FILLER_0_28_235
*1578 FILLER_0_28_242
*1579 FILLER_0_28_250
*1580 FILLER_0_28_253
*1581 FILLER_0_28_257
*1582 FILLER_0_28_279
*1583 FILLER_0_28_284
*1584 FILLER_0_28_299
*1585 FILLER_0_28_3
*1586 FILLER_0_28_45
*1587 FILLER_0_28_55
*1588 FILLER_0_28_74
*1589 FILLER_0_29_101
*1590 FILLER_0_29_110
*1591 FILLER_0_29_116
*1592 FILLER_0_29_144
*1593 FILLER_0_29_15
*1594 FILLER_0_29_174
*1595 FILLER_0_29_255
*1596 FILLER_0_29_272
*1597 FILLER_0_29_281
*1598 FILLER_0_29_299
*1599 FILLER_0_29_3
*1600 FILLER_0_29_37
*1601 FILLER_0_29_57
*1602 FILLER_0_29_81
*1603 FILLER_0_2_109
*1604 FILLER_0_2_121
*1605 FILLER_0_2_133
*1606 FILLER_0_2_139
*1607 FILLER_0_2_141
*1608 FILLER_0_2_145
*1609 FILLER_0_2_15
*1610 FILLER_0_2_151
*1611 FILLER_0_2_159
*1612 FILLER_0_2_178
*1613 FILLER_0_2_190
*1614 FILLER_0_2_197
*1615 FILLER_0_2_209
*1616 FILLER_0_2_221
*1617 FILLER_0_2_229
*1618 FILLER_0_2_234
*1619 FILLER_0_2_242
*1620 FILLER_0_2_250
*1621 FILLER_0_2_253
*1622 FILLER_0_2_265
*1623 FILLER_0_2_27
*1624 FILLER_0_2_277
*1625 FILLER_0_2_289
*1626 FILLER_0_2_29
*1627 FILLER_0_2_3
*1628 FILLER_0_2_301
*1629 FILLER_0_2_307
*1630 FILLER_0_2_309
*1631 FILLER_0_2_321
*1632 FILLER_0_2_333
*1633 FILLER_0_2_41
*1634 FILLER_0_2_53
*1635 FILLER_0_2_65
*1636 FILLER_0_2_77
*1637 FILLER_0_2_83
*1638 FILLER_0_2_85
*1639 FILLER_0_2_97
*1640 FILLER_0_30_105
*1641 FILLER_0_30_113
*1642 FILLER_0_30_139
*1643 FILLER_0_30_154
*1644 FILLER_0_30_158
*1645 FILLER_0_30_178
*1646 FILLER_0_30_19
*1647 FILLER_0_30_197
*1648 FILLER_0_30_201
*1649 FILLER_0_30_216
*1650 FILLER_0_30_241
*1651 FILLER_0_30_250
*1652 FILLER_0_30_253
*1653 FILLER_0_30_267
*1654 FILLER_0_30_27
*1655 FILLER_0_30_271
*1656 FILLER_0_30_281
*1657 FILLER_0_30_291
*1658 FILLER_0_30_306
*1659 FILLER_0_30_327
*1660 FILLER_0_30_60
*1661 FILLER_0_30_82
*1662 FILLER_0_30_85
*1663 FILLER_0_31_105
*1664 FILLER_0_31_111
*1665 FILLER_0_31_113
*1666 FILLER_0_31_124
*1667 FILLER_0_31_13
*1668 FILLER_0_31_145
*1669 FILLER_0_31_156
*1670 FILLER_0_31_164
*1671 FILLER_0_31_174
*1672 FILLER_0_31_185
*1673 FILLER_0_31_197
*1674 FILLER_0_31_213
*1675 FILLER_0_31_223
*1676 FILLER_0_31_225
*1677 FILLER_0_31_235
*1678 FILLER_0_31_24
*1679 FILLER_0_31_264
*1680 FILLER_0_31_274
*1681 FILLER_0_31_297
*1682 FILLER_0_31_3
*1683 FILLER_0_31_315
*1684 FILLER_0_31_333
*1685 FILLER_0_31_35
*1686 FILLER_0_31_57
*1687 FILLER_0_31_69
*1688 FILLER_0_31_7
*1689 FILLER_0_31_73
*1690 FILLER_0_31_87
*1691 FILLER_0_32_114
*1692 FILLER_0_32_133
*1693 FILLER_0_32_139
*1694 FILLER_0_32_141
*1695 FILLER_0_32_152
*1696 FILLER_0_32_156
*1697 FILLER_0_32_163
*1698 FILLER_0_32_180
*1699 FILLER_0_32_194
*1700 FILLER_0_32_197
*1701 FILLER_0_32_201
*1702 FILLER_0_32_22
*1703 FILLER_0_32_236
*1704 FILLER_0_32_248
*1705 FILLER_0_32_253
*1706 FILLER_0_32_280
*1707 FILLER_0_32_285
*1708 FILLER_0_32_291
*1709 FILLER_0_32_299
*1710 FILLER_0_32_306
*1711 FILLER_0_32_312
*1712 FILLER_0_32_318
*1713 FILLER_0_32_63
*1714 FILLER_0_32_73
*1715 FILLER_0_32_79
*1716 FILLER_0_32_83
*1717 FILLER_0_32_85
*1718 FILLER_0_32_91
*1719 FILLER_0_32_95
*1720 FILLER_0_33_122
*1721 FILLER_0_33_14
*1722 FILLER_0_33_161
*1723 FILLER_0_33_167
*1724 FILLER_0_33_176
*1725 FILLER_0_33_18
*1726 FILLER_0_33_199
*1727 FILLER_0_33_203
*1728 FILLER_0_33_212
*1729 FILLER_0_33_220
*1730 FILLER_0_33_249
*1731 FILLER_0_33_254
*1732 FILLER_0_33_258
*1733 FILLER_0_33_262
*1734 FILLER_0_33_274
*1735 FILLER_0_33_3
*1736 FILLER_0_33_308
*1737 FILLER_0_33_54
*1738 FILLER_0_33_99
*1739 FILLER_0_34_104
*1740 FILLER_0_34_114
*1741 FILLER_0_34_134
*1742 FILLER_0_34_141
*1743 FILLER_0_34_156
*1744 FILLER_0_34_177
*1745 FILLER_0_34_181
*1746 FILLER_0_34_197
*1747 FILLER_0_34_209
*1748 FILLER_0_34_21
*1749 FILLER_0_34_253
*1750 FILLER_0_34_27
*1751 FILLER_0_34_277
*1752 FILLER_0_34_29
*1753 FILLER_0_34_3
*1754 FILLER_0_34_333
*1755 FILLER_0_34_39
*1756 FILLER_0_34_44
*1757 FILLER_0_34_50
*1758 FILLER_0_34_62
*1759 FILLER_0_34_94
*1760 FILLER_0_34_98