*SPEF "ieee 1481-1999"
*DESIGN "tt_um_wokwi_395614106833794049"
*DATE "19:37:22 Friday April 19, 2024"
*VENDOR "The OpenROAD Project"
*PROGRAM "OpenROAD"
*VERSION "0889970d1790a2617e69f253221b8bd7626e51dc"
*DESIGN_FLOW "NAME_SCOPE LOCAL" "PIN_CAP NONE"
*DIVIDER /
*DELIMITER :
*BUS_DELIMITER []
*T_UNIT 1 NS
*C_UNIT 1 PF
*R_UNIT 1 OHM
*L_UNIT 1 HENRY

*NAME_MAP
*3 clk
*4 ena
*5 rst_n
*6 ui_in[0]
*7 ui_in[1]
*8 ui_in[2]
*9 ui_in[3]
*10 ui_in[4]
*11 ui_in[5]
*12 ui_in[6]
*13 ui_in[7]
*14 uio_in[0]
*15 uio_in[1]
*16 uio_in[2]
*17 uio_in[3]
*18 uio_in[4]
*19 uio_in[5]
*20 uio_in[6]
*21 uio_in[7]
*22 net16
*23 net17
*24 net18
*25 net19
*26 net20
*27 net21
*28 net22
*29 net23
*30 net24
*31 net25
*32 net26
*33 net27
*34 net28
*35 net29
*36 net30
*37 net31
*38 uo_out[0]
*39 uo_out[1]
*40 uo_out[2]
*41 uo_out[3]
*42 uo_out[4]
*43 uo_out[5]
*44 uo_out[6]
*45 uo_out[7]
*46 _000_
*47 _001_
*48 _002_
*49 _003_
*50 _004_
*51 _005_
*52 _006_
*53 _007_
*54 _008_
*55 _009_
*56 _010_
*57 _011_
*58 _012_
*59 _013_
*60 _014_
*61 _015_
*62 _016_
*63 _017_
*64 _018_
*65 _019_
*66 _020_
*67 _021_
*68 _022_
*69 _023_
*70 _024_
*71 _025_
*72 _026_
*73 _027_
*74 _028_
*75 _029_
*76 _030_
*77 _031_
*78 _032_
*79 _033_
*80 _034_
*81 _035_
*82 _036_
*83 _037_
*84 _038_
*85 _039_
*86 _040_
*87 _041_
*88 _042_
*89 _043_
*90 _044_
*91 _045_
*92 _046_
*93 _047_
*94 _048_
*95 _049_
*96 _050_
*97 _051_
*98 _052_
*99 _053_
*100 _054_
*101 _055_
*102 _056_
*103 _057_
*104 _058_
*105 _059_
*106 _060_
*107 _061_
*108 _062_
*109 _063_
*110 _064_
*111 _065_
*112 _066_
*113 net1
*114 net10
*115 net11
*116 net12
*117 net13
*118 net14
*119 net15
*120 net2
*121 net3
*122 net4
*123 net5
*124 net6
*125 net7
*126 net8
*127 net9
*128 s
*129 t
*130 u
*131 v
*132 w
*133 x
*134 y
*135 z
*136 FILLER_0_0_109
*137 FILLER_0_0_113
*138 FILLER_0_0_125
*139 FILLER_0_0_137
*140 FILLER_0_0_141
*141 FILLER_0_0_15
*142 FILLER_0_0_153
*143 FILLER_0_0_165
*144 FILLER_0_0_169
*145 FILLER_0_0_181
*146 FILLER_0_0_193
*147 FILLER_0_0_197
*148 FILLER_0_0_209
*149 FILLER_0_0_221
*150 FILLER_0_0_225
*151 FILLER_0_0_237
*152 FILLER_0_0_249
*153 FILLER_0_0_253
*154 FILLER_0_0_265
*155 FILLER_0_0_27
*156 FILLER_0_0_277
*157 FILLER_0_0_281
*158 FILLER_0_0_29
*159 FILLER_0_0_293
*160 FILLER_0_0_3
*161 FILLER_0_0_305
*162 FILLER_0_0_309
*163 FILLER_0_0_321
*164 FILLER_0_0_333
*165 FILLER_0_0_41
*166 FILLER_0_0_53
*167 FILLER_0_0_57
*168 FILLER_0_0_69
*169 FILLER_0_0_81
*170 FILLER_0_0_85
*171 FILLER_0_0_97
*172 FILLER_0_10_109
*173 FILLER_0_10_121
*174 FILLER_0_10_133
*175 FILLER_0_10_139
*176 FILLER_0_10_141
*177 FILLER_0_10_15
*178 FILLER_0_10_153
*179 FILLER_0_10_165
*180 FILLER_0_10_177
*181 FILLER_0_10_189
*182 FILLER_0_10_195
*183 FILLER_0_10_197
*184 FILLER_0_10_209
*185 FILLER_0_10_221
*186 FILLER_0_10_233
*187 FILLER_0_10_245
*188 FILLER_0_10_251
*189 FILLER_0_10_253
*190 FILLER_0_10_265
*191 FILLER_0_10_27
*192 FILLER_0_10_277
*193 FILLER_0_10_289
*194 FILLER_0_10_29
*195 FILLER_0_10_3
*196 FILLER_0_10_301
*197 FILLER_0_10_307
*198 FILLER_0_10_309
*199 FILLER_0_10_321
*200 FILLER_0_10_333
*201 FILLER_0_10_41
*202 FILLER_0_10_53
*203 FILLER_0_10_65
*204 FILLER_0_10_77
*205 FILLER_0_10_83
*206 FILLER_0_10_85
*207 FILLER_0_10_97
*208 FILLER_0_11_105
*209 FILLER_0_11_111
*210 FILLER_0_11_113
*211 FILLER_0_11_125
*212 FILLER_0_11_137
*213 FILLER_0_11_149
*214 FILLER_0_11_15
*215 FILLER_0_11_161
*216 FILLER_0_11_167
*217 FILLER_0_11_169
*218 FILLER_0_11_181
*219 FILLER_0_11_193
*220 FILLER_0_11_205
*221 FILLER_0_11_217
*222 FILLER_0_11_223
*223 FILLER_0_11_225
*224 FILLER_0_11_237
*225 FILLER_0_11_249
*226 FILLER_0_11_261
*227 FILLER_0_11_27
*228 FILLER_0_11_273
*229 FILLER_0_11_279
*230 FILLER_0_11_281
*231 FILLER_0_11_293
*232 FILLER_0_11_3
*233 FILLER_0_11_305
*234 FILLER_0_11_317
*235 FILLER_0_11_329
*236 FILLER_0_11_39
*237 FILLER_0_11_51
*238 FILLER_0_11_55
*239 FILLER_0_11_57
*240 FILLER_0_11_69
*241 FILLER_0_11_81
*242 FILLER_0_11_93
*243 FILLER_0_12_109
*244 FILLER_0_12_121
*245 FILLER_0_12_133
*246 FILLER_0_12_139
*247 FILLER_0_12_141
*248 FILLER_0_12_15
*249 FILLER_0_12_153
*250 FILLER_0_12_165
*251 FILLER_0_12_177
*252 FILLER_0_12_189
*253 FILLER_0_12_195
*254 FILLER_0_12_197
*255 FILLER_0_12_209
*256 FILLER_0_12_221
*257 FILLER_0_12_233
*258 FILLER_0_12_245
*259 FILLER_0_12_251
*260 FILLER_0_12_253
*261 FILLER_0_12_265
*262 FILLER_0_12_27
*263 FILLER_0_12_277
*264 FILLER_0_12_289
*265 FILLER_0_12_29
*266 FILLER_0_12_3
*267 FILLER_0_12_301
*268 FILLER_0_12_307
*269 FILLER_0_12_309
*270 FILLER_0_12_321
*271 FILLER_0_12_333
*272 FILLER_0_12_41
*273 FILLER_0_12_53
*274 FILLER_0_12_65
*275 FILLER_0_12_77
*276 FILLER_0_12_83
*277 FILLER_0_12_85
*278 FILLER_0_12_97
*279 FILLER_0_13_105
*280 FILLER_0_13_111
*281 FILLER_0_13_113
*282 FILLER_0_13_125
*283 FILLER_0_13_137
*284 FILLER_0_13_149
*285 FILLER_0_13_15
*286 FILLER_0_13_161
*287 FILLER_0_13_167
*288 FILLER_0_13_169
*289 FILLER_0_13_181
*290 FILLER_0_13_193
*291 FILLER_0_13_205
*292 FILLER_0_13_217
*293 FILLER_0_13_223
*294 FILLER_0_13_225
*295 FILLER_0_13_237
*296 FILLER_0_13_249
*297 FILLER_0_13_261
*298 FILLER_0_13_27
*299 FILLER_0_13_273
*300 FILLER_0_13_279
*301 FILLER_0_13_281
*302 FILLER_0_13_293
*303 FILLER_0_13_3
*304 FILLER_0_13_305
*305 FILLER_0_13_317
*306 FILLER_0_13_329
*307 FILLER_0_13_39
*308 FILLER_0_13_51
*309 FILLER_0_13_55
*310 FILLER_0_13_57
*311 FILLER_0_13_69
*312 FILLER_0_13_81
*313 FILLER_0_13_93
*314 FILLER_0_14_109
*315 FILLER_0_14_121
*316 FILLER_0_14_133
*317 FILLER_0_14_139
*318 FILLER_0_14_141
*319 FILLER_0_14_15
*320 FILLER_0_14_153
*321 FILLER_0_14_165
*322 FILLER_0_14_177
*323 FILLER_0_14_189
*324 FILLER_0_14_195
*325 FILLER_0_14_197
*326 FILLER_0_14_209
*327 FILLER_0_14_221
*328 FILLER_0_14_233
*329 FILLER_0_14_245
*330 FILLER_0_14_251
*331 FILLER_0_14_253
*332 FILLER_0_14_265
*333 FILLER_0_14_27
*334 FILLER_0_14_277
*335 FILLER_0_14_289
*336 FILLER_0_14_29
*337 FILLER_0_14_3
*338 FILLER_0_14_301
*339 FILLER_0_14_307
*340 FILLER_0_14_309
*341 FILLER_0_14_321
*342 FILLER_0_14_333
*343 FILLER_0_14_41
*344 FILLER_0_14_53
*345 FILLER_0_14_65
*346 FILLER_0_14_77
*347 FILLER_0_14_83
*348 FILLER_0_14_85
*349 FILLER_0_14_97
*350 FILLER_0_15_105
*351 FILLER_0_15_111
*352 FILLER_0_15_113
*353 FILLER_0_15_125
*354 FILLER_0_15_137
*355 FILLER_0_15_149
*356 FILLER_0_15_15
*357 FILLER_0_15_161
*358 FILLER_0_15_167
*359 FILLER_0_15_169
*360 FILLER_0_15_181
*361 FILLER_0_15_193
*362 FILLER_0_15_205
*363 FILLER_0_15_217
*364 FILLER_0_15_223
*365 FILLER_0_15_225
*366 FILLER_0_15_237
*367 FILLER_0_15_249
*368 FILLER_0_15_261
*369 FILLER_0_15_27
*370 FILLER_0_15_273
*371 FILLER_0_15_279
*372 FILLER_0_15_281
*373 FILLER_0_15_293
*374 FILLER_0_15_3
*375 FILLER_0_15_305
*376 FILLER_0_15_317
*377 FILLER_0_15_329
*378 FILLER_0_15_39
*379 FILLER_0_15_51
*380 FILLER_0_15_55
*381 FILLER_0_15_57
*382 FILLER_0_15_69
*383 FILLER_0_15_81
*384 FILLER_0_15_93
*385 FILLER_0_16_109
*386 FILLER_0_16_121
*387 FILLER_0_16_133
*388 FILLER_0_16_139
*389 FILLER_0_16_141
*390 FILLER_0_16_15
*391 FILLER_0_16_153
*392 FILLER_0_16_165
*393 FILLER_0_16_177
*394 FILLER_0_16_189
*395 FILLER_0_16_195
*396 FILLER_0_16_197
*397 FILLER_0_16_209
*398 FILLER_0_16_221
*399 FILLER_0_16_233
*400 FILLER_0_16_245
*401 FILLER_0_16_251
*402 FILLER_0_16_253
*403 FILLER_0_16_265
*404 FILLER_0_16_27
*405 FILLER_0_16_277
*406 FILLER_0_16_289
*407 FILLER_0_16_29
*408 FILLER_0_16_3
*409 FILLER_0_16_301
*410 FILLER_0_16_307
*411 FILLER_0_16_309
*412 FILLER_0_16_321
*413 FILLER_0_16_333
*414 FILLER_0_16_41
*415 FILLER_0_16_53
*416 FILLER_0_16_65
*417 FILLER_0_16_77
*418 FILLER_0_16_83
*419 FILLER_0_16_85
*420 FILLER_0_16_97
*421 FILLER_0_17_105
*422 FILLER_0_17_111
*423 FILLER_0_17_113
*424 FILLER_0_17_125
*425 FILLER_0_17_137
*426 FILLER_0_17_149
*427 FILLER_0_17_15
*428 FILLER_0_17_161
*429 FILLER_0_17_167
*430 FILLER_0_17_169
*431 FILLER_0_17_181
*432 FILLER_0_17_193
*433 FILLER_0_17_205
*434 FILLER_0_17_217
*435 FILLER_0_17_223
*436 FILLER_0_17_225
*437 FILLER_0_17_237
*438 FILLER_0_17_249
*439 FILLER_0_17_261
*440 FILLER_0_17_27
*441 FILLER_0_17_273
*442 FILLER_0_17_279
*443 FILLER_0_17_281
*444 FILLER_0_17_293
*445 FILLER_0_17_3
*446 FILLER_0_17_305
*447 FILLER_0_17_317
*448 FILLER_0_17_329
*449 FILLER_0_17_39
*450 FILLER_0_17_51
*451 FILLER_0_17_55
*452 FILLER_0_17_57
*453 FILLER_0_17_69
*454 FILLER_0_17_81
*455 FILLER_0_17_93
*456 FILLER_0_18_109
*457 FILLER_0_18_121
*458 FILLER_0_18_133
*459 FILLER_0_18_139
*460 FILLER_0_18_141
*461 FILLER_0_18_15
*462 FILLER_0_18_153
*463 FILLER_0_18_165
*464 FILLER_0_18_177
*465 FILLER_0_18_189
*466 FILLER_0_18_195
*467 FILLER_0_18_197
*468 FILLER_0_18_209
*469 FILLER_0_18_221
*470 FILLER_0_18_233
*471 FILLER_0_18_245
*472 FILLER_0_18_251
*473 FILLER_0_18_253
*474 FILLER_0_18_265
*475 FILLER_0_18_27
*476 FILLER_0_18_277
*477 FILLER_0_18_289
*478 FILLER_0_18_29
*479 FILLER_0_18_3
*480 FILLER_0_18_301
*481 FILLER_0_18_307
*482 FILLER_0_18_309
*483 FILLER_0_18_321
*484 FILLER_0_18_333
*485 FILLER_0_18_41
*486 FILLER_0_18_53
*487 FILLER_0_18_65
*488 FILLER_0_18_77
*489 FILLER_0_18_83
*490 FILLER_0_18_85
*491 FILLER_0_18_97
*492 FILLER_0_19_105
*493 FILLER_0_19_111
*494 FILLER_0_19_113
*495 FILLER_0_19_125
*496 FILLER_0_19_137
*497 FILLER_0_19_149
*498 FILLER_0_19_15
*499 FILLER_0_19_161
*500 FILLER_0_19_167
*501 FILLER_0_19_169
*502 FILLER_0_19_181
*503 FILLER_0_19_193
*504 FILLER_0_19_205
*505 FILLER_0_19_217
*506 FILLER_0_19_223
*507 FILLER_0_19_225
*508 FILLER_0_19_237
*509 FILLER_0_19_249
*510 FILLER_0_19_261
*511 FILLER_0_19_27
*512 FILLER_0_19_273
*513 FILLER_0_19_279
*514 FILLER_0_19_281
*515 FILLER_0_19_293
*516 FILLER_0_19_3
*517 FILLER_0_19_305
*518 FILLER_0_19_317
*519 FILLER_0_19_329
*520 FILLER_0_19_39
*521 FILLER_0_19_51
*522 FILLER_0_19_55
*523 FILLER_0_19_57
*524 FILLER_0_19_69
*525 FILLER_0_19_81
*526 FILLER_0_19_93
*527 FILLER_0_1_105
*528 FILLER_0_1_111
*529 FILLER_0_1_113
*530 FILLER_0_1_125
*531 FILLER_0_1_137
*532 FILLER_0_1_149
*533 FILLER_0_1_15
*534 FILLER_0_1_161
*535 FILLER_0_1_167
*536 FILLER_0_1_169
*537 FILLER_0_1_181
*538 FILLER_0_1_193
*539 FILLER_0_1_205
*540 FILLER_0_1_217
*541 FILLER_0_1_223
*542 FILLER_0_1_225
*543 FILLER_0_1_237
*544 FILLER_0_1_249
*545 FILLER_0_1_261
*546 FILLER_0_1_27
*547 FILLER_0_1_273
*548 FILLER_0_1_279
*549 FILLER_0_1_281
*550 FILLER_0_1_293
*551 FILLER_0_1_3
*552 FILLER_0_1_305
*553 FILLER_0_1_317
*554 FILLER_0_1_329
*555 FILLER_0_1_39
*556 FILLER_0_1_51
*557 FILLER_0_1_55
*558 FILLER_0_1_57
*559 FILLER_0_1_69
*560 FILLER_0_1_81
*561 FILLER_0_1_93
*562 FILLER_0_20_109
*563 FILLER_0_20_121
*564 FILLER_0_20_133
*565 FILLER_0_20_139
*566 FILLER_0_20_141
*567 FILLER_0_20_15
*568 FILLER_0_20_153
*569 FILLER_0_20_165
*570 FILLER_0_20_177
*571 FILLER_0_20_189
*572 FILLER_0_20_195
*573 FILLER_0_20_197
*574 FILLER_0_20_209
*575 FILLER_0_20_221
*576 FILLER_0_20_233
*577 FILLER_0_20_245
*578 FILLER_0_20_251
*579 FILLER_0_20_253
*580 FILLER_0_20_265
*581 FILLER_0_20_27
*582 FILLER_0_20_277
*583 FILLER_0_20_289
*584 FILLER_0_20_29
*585 FILLER_0_20_3
*586 FILLER_0_20_301
*587 FILLER_0_20_307
*588 FILLER_0_20_309
*589 FILLER_0_20_321
*590 FILLER_0_20_333
*591 FILLER_0_20_41
*592 FILLER_0_20_53
*593 FILLER_0_20_65
*594 FILLER_0_20_77
*595 FILLER_0_20_83
*596 FILLER_0_20_85
*597 FILLER_0_20_97
*598 FILLER_0_21_105
*599 FILLER_0_21_111
*600 FILLER_0_21_113
*601 FILLER_0_21_125
*602 FILLER_0_21_137
*603 FILLER_0_21_149
*604 FILLER_0_21_15
*605 FILLER_0_21_161
*606 FILLER_0_21_167
*607 FILLER_0_21_169
*608 FILLER_0_21_181
*609 FILLER_0_21_193
*610 FILLER_0_21_205
*611 FILLER_0_21_217
*612 FILLER_0_21_223
*613 FILLER_0_21_225
*614 FILLER_0_21_237
*615 FILLER_0_21_249
*616 FILLER_0_21_261
*617 FILLER_0_21_27
*618 FILLER_0_21_273
*619 FILLER_0_21_279
*620 FILLER_0_21_281
*621 FILLER_0_21_293
*622 FILLER_0_21_3
*623 FILLER_0_21_305
*624 FILLER_0_21_317
*625 FILLER_0_21_329
*626 FILLER_0_21_39
*627 FILLER_0_21_51
*628 FILLER_0_21_55
*629 FILLER_0_21_57
*630 FILLER_0_21_69
*631 FILLER_0_21_81
*632 FILLER_0_21_93
*633 FILLER_0_22_109
*634 FILLER_0_22_121
*635 FILLER_0_22_133
*636 FILLER_0_22_139
*637 FILLER_0_22_141
*638 FILLER_0_22_15
*639 FILLER_0_22_153
*640 FILLER_0_22_165
*641 FILLER_0_22_177
*642 FILLER_0_22_189
*643 FILLER_0_22_195
*644 FILLER_0_22_197
*645 FILLER_0_22_209
*646 FILLER_0_22_221
*647 FILLER_0_22_233
*648 FILLER_0_22_245
*649 FILLER_0_22_251
*650 FILLER_0_22_253
*651 FILLER_0_22_265
*652 FILLER_0_22_27
*653 FILLER_0_22_277
*654 FILLER_0_22_289
*655 FILLER_0_22_29
*656 FILLER_0_22_3
*657 FILLER_0_22_301
*658 FILLER_0_22_307
*659 FILLER_0_22_309
*660 FILLER_0_22_321
*661 FILLER_0_22_333
*662 FILLER_0_22_41
*663 FILLER_0_22_53
*664 FILLER_0_22_65
*665 FILLER_0_22_77
*666 FILLER_0_22_83
*667 FILLER_0_22_85
*668 FILLER_0_22_97
*669 FILLER_0_23_105
*670 FILLER_0_23_111
*671 FILLER_0_23_113
*672 FILLER_0_23_125
*673 FILLER_0_23_137
*674 FILLER_0_23_149
*675 FILLER_0_23_15
*676 FILLER_0_23_161
*677 FILLER_0_23_167
*678 FILLER_0_23_169
*679 FILLER_0_23_181
*680 FILLER_0_23_193
*681 FILLER_0_23_205
*682 FILLER_0_23_217
*683 FILLER_0_23_223
*684 FILLER_0_23_225
*685 FILLER_0_23_237
*686 FILLER_0_23_249
*687 FILLER_0_23_261
*688 FILLER_0_23_27
*689 FILLER_0_23_273
*690 FILLER_0_23_279
*691 FILLER_0_23_281
*692 FILLER_0_23_293
*693 FILLER_0_23_3
*694 FILLER_0_23_305
*695 FILLER_0_23_317
*696 FILLER_0_23_329
*697 FILLER_0_23_39
*698 FILLER_0_23_51
*699 FILLER_0_23_55
*700 FILLER_0_23_57
*701 FILLER_0_23_69
*702 FILLER_0_23_81
*703 FILLER_0_23_93
*704 FILLER_0_24_109
*705 FILLER_0_24_121
*706 FILLER_0_24_133
*707 FILLER_0_24_139
*708 FILLER_0_24_141
*709 FILLER_0_24_15
*710 FILLER_0_24_153
*711 FILLER_0_24_165
*712 FILLER_0_24_177
*713 FILLER_0_24_189
*714 FILLER_0_24_195
*715 FILLER_0_24_197
*716 FILLER_0_24_209
*717 FILLER_0_24_221
*718 FILLER_0_24_233
*719 FILLER_0_24_245
*720 FILLER_0_24_251
*721 FILLER_0_24_253
*722 FILLER_0_24_265
*723 FILLER_0_24_27
*724 FILLER_0_24_277
*725 FILLER_0_24_289
*726 FILLER_0_24_29
*727 FILLER_0_24_3
*728 FILLER_0_24_301
*729 FILLER_0_24_307
*730 FILLER_0_24_309
*731 FILLER_0_24_321
*732 FILLER_0_24_333
*733 FILLER_0_24_41
*734 FILLER_0_24_53
*735 FILLER_0_24_65
*736 FILLER_0_24_77
*737 FILLER_0_24_83
*738 FILLER_0_24_85
*739 FILLER_0_24_97
*740 FILLER_0_25_105
*741 FILLER_0_25_111
*742 FILLER_0_25_113
*743 FILLER_0_25_125
*744 FILLER_0_25_137
*745 FILLER_0_25_149
*746 FILLER_0_25_15
*747 FILLER_0_25_161
*748 FILLER_0_25_167
*749 FILLER_0_25_169
*750 FILLER_0_25_181
*751 FILLER_0_25_193
*752 FILLER_0_25_205
*753 FILLER_0_25_217
*754 FILLER_0_25_223
*755 FILLER_0_25_225
*756 FILLER_0_25_237
*757 FILLER_0_25_249
*758 FILLER_0_25_261
*759 FILLER_0_25_27
*760 FILLER_0_25_273
*761 FILLER_0_25_279
*762 FILLER_0_25_281
*763 FILLER_0_25_293
*764 FILLER_0_25_3
*765 FILLER_0_25_305
*766 FILLER_0_25_317
*767 FILLER_0_25_329
*768 FILLER_0_25_39
*769 FILLER_0_25_51
*770 FILLER_0_25_55
*771 FILLER_0_25_57
*772 FILLER_0_25_69
*773 FILLER_0_25_81
*774 FILLER_0_25_93
*775 FILLER_0_26_109
*776 FILLER_0_26_121
*777 FILLER_0_26_133
*778 FILLER_0_26_139
*779 FILLER_0_26_141
*780 FILLER_0_26_15
*781 FILLER_0_26_153
*782 FILLER_0_26_165
*783 FILLER_0_26_177
*784 FILLER_0_26_189
*785 FILLER_0_26_195
*786 FILLER_0_26_197
*787 FILLER_0_26_209
*788 FILLER_0_26_221
*789 FILLER_0_26_233
*790 FILLER_0_26_245
*791 FILLER_0_26_251
*792 FILLER_0_26_253
*793 FILLER_0_26_265
*794 FILLER_0_26_27
*795 FILLER_0_26_277
*796 FILLER_0_26_289
*797 FILLER_0_26_29
*798 FILLER_0_26_3
*799 FILLER_0_26_301
*800 FILLER_0_26_307
*801 FILLER_0_26_309
*802 FILLER_0_26_321
*803 FILLER_0_26_333
*804 FILLER_0_26_41
*805 FILLER_0_26_53
*806 FILLER_0_26_65
*807 FILLER_0_26_77
*808 FILLER_0_26_83
*809 FILLER_0_26_85
*810 FILLER_0_26_97
*811 FILLER_0_27_105
*812 FILLER_0_27_111
*813 FILLER_0_27_113
*814 FILLER_0_27_125
*815 FILLER_0_27_137
*816 FILLER_0_27_149
*817 FILLER_0_27_15
*818 FILLER_0_27_161
*819 FILLER_0_27_167
*820 FILLER_0_27_169
*821 FILLER_0_27_181
*822 FILLER_0_27_193
*823 FILLER_0_27_205
*824 FILLER_0_27_217
*825 FILLER_0_27_223
*826 FILLER_0_27_225
*827 FILLER_0_27_237
*828 FILLER_0_27_249
*829 FILLER_0_27_261
*830 FILLER_0_27_27
*831 FILLER_0_27_273
*832 FILLER_0_27_279
*833 FILLER_0_27_281
*834 FILLER_0_27_293
*835 FILLER_0_27_3
*836 FILLER_0_27_305
*837 FILLER_0_27_317
*838 FILLER_0_27_329
*839 FILLER_0_27_39
*840 FILLER_0_27_51
*841 FILLER_0_27_55
*842 FILLER_0_27_57
*843 FILLER_0_27_69
*844 FILLER_0_27_81
*845 FILLER_0_27_93
*846 FILLER_0_28_109
*847 FILLER_0_28_121
*848 FILLER_0_28_133
*849 FILLER_0_28_139
*850 FILLER_0_28_141
*851 FILLER_0_28_15
*852 FILLER_0_28_153
*853 FILLER_0_28_165
*854 FILLER_0_28_177
*855 FILLER_0_28_189
*856 FILLER_0_28_195
*857 FILLER_0_28_197
*858 FILLER_0_28_209
*859 FILLER_0_28_221
*860 FILLER_0_28_233
*861 FILLER_0_28_245
*862 FILLER_0_28_251
*863 FILLER_0_28_253
*864 FILLER_0_28_265
*865 FILLER_0_28_27
*866 FILLER_0_28_277
*867 FILLER_0_28_289
*868 FILLER_0_28_29
*869 FILLER_0_28_3
*870 FILLER_0_28_301
*871 FILLER_0_28_307
*872 FILLER_0_28_309
*873 FILLER_0_28_321
*874 FILLER_0_28_333
*875 FILLER_0_28_41
*876 FILLER_0_28_53
*877 FILLER_0_28_65
*878 FILLER_0_28_77
*879 FILLER_0_28_83
*880 FILLER_0_28_85
*881 FILLER_0_28_97
*882 FILLER_0_29_105
*883 FILLER_0_29_111
*884 FILLER_0_29_113
*885 FILLER_0_29_125
*886 FILLER_0_29_137
*887 FILLER_0_29_149
*888 FILLER_0_29_15
*889 FILLER_0_29_161
*890 FILLER_0_29_167
*891 FILLER_0_29_169
*892 FILLER_0_29_181
*893 FILLER_0_29_193
*894 FILLER_0_29_205
*895 FILLER_0_29_217
*896 FILLER_0_29_223
*897 FILLER_0_29_225
*898 FILLER_0_29_237
*899 FILLER_0_29_249
*900 FILLER_0_29_261
*901 FILLER_0_29_27
*902 FILLER_0_29_273
*903 FILLER_0_29_279
*904 FILLER_0_29_281
*905 FILLER_0_29_293
*906 FILLER_0_29_3
*907 FILLER_0_29_305
*908 FILLER_0_29_317
*909 FILLER_0_29_329
*910 FILLER_0_29_39
*911 FILLER_0_29_51
*912 FILLER_0_29_55
*913 FILLER_0_29_57
*914 FILLER_0_29_69
*915 FILLER_0_29_81
*916 FILLER_0_29_93
*917 FILLER_0_2_109
*918 FILLER_0_2_121
*919 FILLER_0_2_133
*920 FILLER_0_2_139
*921 FILLER_0_2_141
*922 FILLER_0_2_15
*923 FILLER_0_2_153
*924 FILLER_0_2_165
*925 FILLER_0_2_177
*926 FILLER_0_2_189
*927 FILLER_0_2_195
*928 FILLER_0_2_197
*929 FILLER_0_2_209
*930 FILLER_0_2_221
*931 FILLER_0_2_233
*932 FILLER_0_2_245
*933 FILLER_0_2_251
*934 FILLER_0_2_253
*935 FILLER_0_2_265
*936 FILLER_0_2_27
*937 FILLER_0_2_277
*938 FILLER_0_2_289
*939 FILLER_0_2_29
*940 FILLER_0_2_3
*941 FILLER_0_2_301
*942 FILLER_0_2_307
*943 FILLER_0_2_309
*944 FILLER_0_2_321
*945 FILLER_0_2_333
*946 FILLER_0_2_41
*947 FILLER_0_2_53
*948 FILLER_0_2_65
*949 FILLER_0_2_77
*950 FILLER_0_2_83
*951 FILLER_0_2_85
*952 FILLER_0_2_97
*953 FILLER_0_30_109
*954 FILLER_0_30_121
*955 FILLER_0_30_133
*956 FILLER_0_30_139
*957 FILLER_0_30_141
*958 FILLER_0_30_15
*959 FILLER_0_30_153
*960 FILLER_0_30_165
*961 FILLER_0_30_177
*962 FILLER_0_30_189
*963 FILLER_0_30_195
*964 FILLER_0_30_197
*965 FILLER_0_30_209
*966 FILLER_0_30_221
*967 FILLER_0_30_233
*968 FILLER_0_30_245
*969 FILLER_0_30_251
*970 FILLER_0_30_253
*971 FILLER_0_30_265
*972 FILLER_0_30_27
*973 FILLER_0_30_277
*974 FILLER_0_30_289
*975 FILLER_0_30_29
*976 FILLER_0_30_3
*977 FILLER_0_30_301
*978 FILLER_0_30_307
*979 FILLER_0_30_309
*980 FILLER_0_30_321
*981 FILLER_0_30_333
*982 FILLER_0_30_41
*983 FILLER_0_30_53
*984 FILLER_0_30_65
*985 FILLER_0_30_77
*986 FILLER_0_30_83
*987 FILLER_0_30_85
*988 FILLER_0_30_97
*989 FILLER_0_31_105
*990 FILLER_0_31_111
*991 FILLER_0_31_113
*992 FILLER_0_31_125
*993 FILLER_0_31_137
*994 FILLER_0_31_149
*995 FILLER_0_31_15
*996 FILLER_0_31_161
*997 FILLER_0_31_167
*998 FILLER_0_31_169
*999 FILLER_0_31_181
*1000 FILLER_0_31_193
*1001 FILLER_0_31_197
*1002 FILLER_0_31_204
*1003 FILLER_0_31_216
*1004 FILLER_0_31_225
*1005 FILLER_0_31_237
*1006 FILLER_0_31_249
*1007 FILLER_0_31_264
*1008 FILLER_0_31_27
*1009 FILLER_0_31_276
*1010 FILLER_0_31_281
*1011 FILLER_0_31_293
*1012 FILLER_0_31_3
*1013 FILLER_0_31_305
*1014 FILLER_0_31_317
*1015 FILLER_0_31_329
*1016 FILLER_0_31_39
*1017 FILLER_0_31_51
*1018 FILLER_0_31_55
*1019 FILLER_0_31_57
*1020 FILLER_0_31_69
*1021 FILLER_0_31_81
*1022 FILLER_0_31_93
*1023 FILLER_0_32_109
*1024 FILLER_0_32_121
*1025 FILLER_0_32_133
*1026 FILLER_0_32_139
*1027 FILLER_0_32_141
*1028 FILLER_0_32_15
*1029 FILLER_0_32_153
*1030 FILLER_0_32_165
*1031 FILLER_0_32_177
*1032 FILLER_0_32_189
*1033 FILLER_0_32_195
*1034 FILLER_0_32_215
*1035 FILLER_0_32_221
*1036 FILLER_0_32_237
*1037 FILLER_0_32_249
*1038 FILLER_0_32_265
*1039 FILLER_0_32_27
*1040 FILLER_0_32_271
*1041 FILLER_0_32_288
*1042 FILLER_0_32_29
*1043 FILLER_0_32_3
*1044 FILLER_0_32_300
*1045 FILLER_0_32_309
*1046 FILLER_0_32_321
*1047 FILLER_0_32_333
*1048 FILLER_0_32_41
*1049 FILLER_0_32_53
*1050 FILLER_0_32_65
*1051 FILLER_0_32_77
*1052 FILLER_0_32_83
*1053 FILLER_0_32_85
*1054 FILLER_0_32_97
*1055 FILLER_0_33_105
*1056 FILLER_0_33_111
*1057 FILLER_0_33_113
*1058 FILLER_0_33_125
*1059 FILLER_0_33_137
*1060 FILLER_0_33_149
*1061 FILLER_0_33_15
*1062 FILLER_0_33_161
*1063 FILLER_0_33_167
*1064 FILLER_0_33_169
*1065 FILLER_0_33_181
*1066 FILLER_0_33_189
*1067 FILLER_0_33_201
*1068 FILLER_0_33_213
*1069 FILLER_0_33_221
*1070 FILLER_0_33_233
*1071 FILLER_0_33_242
*1072 FILLER_0_33_254
*1073 FILLER_0_33_260
*1074 FILLER_0_33_27
*1075 FILLER_0_33_272
*1076 FILLER_0_33_288
*1077 FILLER_0_33_297
*1078 FILLER_0_33_3
*1079 FILLER_0_33_309
*1080 FILLER_0_33_321
*1081 FILLER_0_33_333
*1082 FILLER_0_33_39
*1083 FILLER_0_33_51
*1084 FILLER_0_33_55
*1085 FILLER_0_33_57
*1086 FILLER_0_33_69
*1087 FILLER_0_33_81
*1088 FILLER_0_33_93
*1089 FILLER_0_34_109
*1090 FILLER_0_34_121
*1091 FILLER_0_34_133
*1092 FILLER_0_34_139
*1093 FILLER_0_34_141
*1094 FILLER_0_34_15
*1095 FILLER_0_34_153
*1096 FILLER_0_34_165
*1097 FILLER_0_34_177
*1098 FILLER_0_34_189
*1099 FILLER_0_34_195
*1100 FILLER_0_34_197
*1101 FILLER_0_34_205
*1102 FILLER_0_34_211
*1103 FILLER_0_34_219
*1104 FILLER_0_34_226
*1105 FILLER_0_34_247
*1106 FILLER_0_34_251
*1107 FILLER_0_34_260
*1108 FILLER_0_34_268
*1109 FILLER_0_34_27
*1110 FILLER_0_34_283
*1111 FILLER_0_34_287
*1112 FILLER_0_34_29
*1113 FILLER_0_34_299
*1114 FILLER_0_34_3
*1115 FILLER_0_34_307
*1116 FILLER_0_34_315
*1117 FILLER_0_34_327
*1118 FILLER_0_34_41
*1119 FILLER_0_34_53
*1120 FILLER_0_34_65
*1121 FILLER_0_34_77
*1122 FILLER_0_34_83
*1123 FILLER_0_34_85
*1124 FILLER_0_34_97
*1125 FILLER_0_35_105
*1126 FILLER_0_35_111
*1127 FILLER_0_35_113
*1128 FILLER_0_35_125
*1129 FILLER_0_35_137
*1130 FILLER_0_35_15
*1131 FILLER_0_35_155
*1132 FILLER_0_35_167
*1133 FILLER_0_35_169
*1134 FILLER_0_35_199
*1135 FILLER_0_35_207
*1136 FILLER_0_35_222
*1137 FILLER_0_35_231
*1138 FILLER_0_35_235
*1139 FILLER_0_35_244
*1140 FILLER_0_35_256
*1141 FILLER_0_35_268
*1142 FILLER_0_35_27
*1143 FILLER_0_35_288
*1144 FILLER_0_35_292
*1145 FILLER_0_35_3
*1146 FILLER_0_35_313
*1147 FILLER_0_35_325
*1148 FILLER_0_35_333
*1149 FILLER_0_35_39
*1150 FILLER_0_35_51
*1151 FILLER_0_35_55
*1152 FILLER_0_35_57
*1153 FILLER_0_35_69
*1154 FILLER_0_35_81
*1155 FILLER_0_35_93
*1156 FILLER_0_36_109
*1157 FILLER_0_36_121
*1158 FILLER_0_36_133
*1159 FILLER_0_36_139
*1160 FILLER_0_36_141
*1161 FILLER_0_36_15
*1162 FILLER_0_36_153
*1163 FILLER_0_36_163
*1164 FILLER_0_36_175
*1165 FILLER_0_36_187
*1166 FILLER_0_36_195
*1167 FILLER_0_36_208
*1168 FILLER_0_36_224
*1169 FILLER_0_36_234
*1170 FILLER_0_36_246
*1171 FILLER_0_36_27
*1172 FILLER_0_36_279
*1173 FILLER_0_36_29
*1174 FILLER_0_36_291
*1175 FILLER_0_36_299
*1176 FILLER_0_36_3
*1177 FILLER_0_36_307
*1178 FILLER_0_36_331
*1179 FILLER_0_36_41
*1180 FILLER_0_36_53
*1181 FILLER_0_36_65
*1182 FILLER_0_36_77
*1183 FILLER_0_36_83
*1184 FILLER_0_36_85
*1185 FILLER_0_36_97
*1186 FILLER_0_37_105
*1187 FILLER_0_37_111
*1188 FILLER_0_37_113
*1189 FILLER_0_37_125
*1190 FILLER_0_37_137
*1191 FILLER_0_37_149
*1192 FILLER_0_37_15
*1193 FILLER_0_37_153
*1194 FILLER_0_37_161
*1195 FILLER_0_37_167
*1196 FILLER_0_37_176
*1197 FILLER_0_37_196
*1198 FILLER_0_37_211
*1199 FILLER_0_37_215
*1200 FILLER_0_37_223
*1201 FILLER_0_37_225
*1202 FILLER_0_37_233
*1203 FILLER_0_37_241
*1204 FILLER_0_37_249
*1205 FILLER_0_37_257
*1206 FILLER_0_37_262
*1207 FILLER_0_37_27
*1208 FILLER_0_37_275
*1209 FILLER_0_37_281
*1210 FILLER_0_37_3
*1211 FILLER_0_37_305
*1212 FILLER_0_37_317
*1213 FILLER_0_37_329
*1214 FILLER_0_37_39
*1215 FILLER_0_37_51
*1216 FILLER_0_37_55
*1217 FILLER_0_37_57
*1218 FILLER_0_37_69
*1219 FILLER_0_37_81
*1220 FILLER_0_37_93
*1221 FILLER_0_38_10
*1222 FILLER_0_38_102
*1223 FILLER_0_38_106
*1224 FILLER_0_38_110
*1225 FILLER_0_38_113
*1226 FILLER_0_38_118
*1227 FILLER_0_38_122
*1228 FILLER_0_38_126
*1229 FILLER_0_38_138
*1230 FILLER_0_38_14
*1231 FILLER_0_38_141
*1232 FILLER_0_38_146
*1233 FILLER_0_38_158
*1234 FILLER_0_38_162
*1235 FILLER_0_38_167
*1236 FILLER_0_38_169
*1237 FILLER_0_38_176
*1238 FILLER_0_38_18
*1239 FILLER_0_38_182
*1240 FILLER_0_38_189
*1241 FILLER_0_38_195
*1242 FILLER_0_38_206
*1243 FILLER_0_38_210
*1244 FILLER_0_38_214
*1245 FILLER_0_38_218
*1246 FILLER_0_38_22
*1247 FILLER_0_38_222
*1248 FILLER_0_38_238
*1249 FILLER_0_38_242
*1250 FILLER_0_38_247
*1251 FILLER_0_38_253
*1252 FILLER_0_38_281
*1253 FILLER_0_38_287
*1254 FILLER_0_38_295
*1255 FILLER_0_38_307
*1256 FILLER_0_38_32
*1257 FILLER_0_38_321
*1258 FILLER_0_38_333
*1259 FILLER_0_38_38
*1260 FILLER_0_38_42
*1261 FILLER_0_38_46
*1262 FILLER_0_38_50
*1263 FILLER_0_38_54
*1264 FILLER_0_38_57
*1265 FILLER_0_38_6
*1266 FILLER_0_38_62
*1267 FILLER_0_38_66
*1268 FILLER_0_38_70
*1269 FILLER_0_38_74
*1270 FILLER_0_38_78
*1271 FILLER_0_38_88
*1272 FILLER_0_38_94
*1273 FILLER_0_38_98
*1274 FILLER_0_3_105
*1275 FILLER_0_3_111
*1276 FILLER_0_3_113
*1277 FILLER_0_3_125
*1278 FILLER_0_3_137
*1279 FILLER_0_3_149
*1280 FILLER_0_3_15
*1281 FILLER_0_3_161
*1282 FILLER_0_3_167
*1283 FILLER_0_3_169
*1284 FILLER_0_3_181
*1285 FILLER_0_3_193
*1286 FILLER_0_3_205
*1287 FILLER_0_3_217
*1288 FILLER_0_3_223
*1289 FILLER_0_3_225
*1290 FILLER_0_3_237
*1291 FILLER_0_3_249
*1292 FILLER_0_3_261
*1293 FILLER_0_3_27
*1294 FILLER_0_3_273
*1295 FILLER_0_3_279
*1296 FILLER_0_3_281
*1297 FILLER_0_3_293
*1298 FILLER_0_3_3
*1299 FILLER_0_3_305
*1300 FILLER_0_3_317
*1301 FILLER_0_3_329
*1302 FILLER_0_3_39
*1303 FILLER_0_3_51
*1304 FILLER_0_3_55
*1305 FILLER_0_3_57
*1306 FILLER_0_3_69
*1307 FILLER_0_3_81
*1308 FILLER_0_3_93
*1309 FILLER_0_4_109
*1310 FILLER_0_4_121
*1311 FILLER_0_4_133
*1312 FILLER_0_4_139
*1313 FILLER_0_4_141
*1314 FILLER_0_4_15
*1315 FILLER_0_4_153
*1316 FILLER_0_4_165
*1317 FILLER_0_4_177
*1318 FILLER_0_4_189
*1319 FILLER_0_4_195
*1320 FILLER_0_4_197
*1321 FILLER_0_4_209
*1322 FILLER_0_4_221
*1323 FILLER_0_4_233
*1324 FILLER_0_4_245
*1325 FILLER_0_4_251
*1326 FILLER_0_4_253
*1327 FILLER_0_4_265
*1328 FILLER_0_4_27
*1329 FILLER_0_4_277
*1330 FILLER_0_4_289
*1331 FILLER_0_4_29
*1332 FILLER_0_4_3
*1333 FILLER_0_4_301
*1334 FILLER_0_4_307
*1335 FILLER_0_4_309
*1336 FILLER_0_4_321
*1337 FILLER_0_4_333
*1338 FILLER_0_4_41
*1339 FILLER_0_4_53
*1340 FILLER_0_4_65
*1341 FILLER_0_4_77
*1342 FILLER_0_4_83
*1343 FILLER_0_4_85
*1344 FILLER_0_4_97
*1345 FILLER_0_5_105
*1346 FILLER_0_5_111
*1347 FILLER_0_5_113
*1348 FILLER_0_5_125
*1349 FILLER_0_5_137
*1350 FILLER_0_5_149
*1351 FILLER_0_5_15
*1352 FILLER_0_5_161
*1353 FILLER_0_5_167
*1354 FILLER_0_5_169
*1355 FILLER_0_5_181
*1356 FILLER_0_5_193
*1357 FILLER_0_5_205
*1358 FILLER_0_5_217
*1359 FILLER_0_5_223
*1360 FILLER_0_5_225
*1361 FILLER_0_5_237
*1362 FILLER_0_5_249
*1363 FILLER_0_5_261
*1364 FILLER_0_5_27
*1365 FILLER_0_5_273
*1366 FILLER_0_5_279
*1367 FILLER_0_5_281
*1368 FILLER_0_5_293
*1369 FILLER_0_5_3
*1370 FILLER_0_5_305
*1371 FILLER_0_5_317
*1372 FILLER_0_5_329
*1373 FILLER_0_5_39
*1374 FILLER_0_5_51
*1375 FILLER_0_5_55
*1376 FILLER_0_5_57
*1377 FILLER_0_5_69
*1378 FILLER_0_5_81
*1379 FILLER_0_5_93
*1380 FILLER_0_6_109
*1381 FILLER_0_6_121
*1382 FILLER_0_6_133
*1383 FILLER_0_6_139
*1384 FILLER_0_6_141
*1385 FILLER_0_6_15
*1386 FILLER_0_6_153
*1387 FILLER_0_6_165
*1388 FILLER_0_6_177
*1389 FILLER_0_6_189
*1390 FILLER_0_6_195
*1391 FILLER_0_6_197
*1392 FILLER_0_6_209
*1393 FILLER_0_6_221
*1394 FILLER_0_6_233
*1395 FILLER_0_6_245
*1396 FILLER_0_6_251
*1397 FILLER_0_6_253
*1398 FILLER_0_6_265
*1399 FILLER_0_6_27
*1400 FILLER_0_6_277
*1401 FILLER_0_6_289
*1402 FILLER_0_6_29
*1403 FILLER_0_6_3
*1404 FILLER_0_6_301
*1405 FILLER_0_6_307
*1406 FILLER_0_6_309
*1407 FILLER_0_6_321
*1408 FILLER_0_6_333
*1409 FILLER_0_6_41
*1410 FILLER_0_6_53
*1411 FILLER_0_6_65
*1412 FILLER_0_6_77
*1413 FILLER_0_6_83
*1414 FILLER_0_6_85
*1415 FILLER_0_6_97
*1416 FILLER_0_7_105
*1417 FILLER_0_7_111
*1418 FILLER_0_7_113
*1419 FILLER_0_7_125
*1420 FILLER_0_7_137
*1421 FILLER_0_7_149
*1422 FILLER_0_7_15
*1423 FILLER_0_7_161
*1424 FILLER_0_7_167
*1425 FILLER_0_7_169
*1426 FILLER_0_7_181
*1427 FILLER_0_7_193
*1428 FILLER_0_7_205
*1429 FILLER_0_7_217
*1430 FILLER_0_7_223
*1431 FILLER_0_7_225
*1432 FILLER_0_7_237
*1433 FILLER_0_7_249
*1434 FILLER_0_7_261
*1435 FILLER_0_7_27
*1436 FILLER_0_7_273
*1437 FILLER_0_7_279
*1438 FILLER_0_7_281
*1439 FILLER_0_7_293
*1440 FILLER_0_7_3
*1441 FILLER_0_7_305
*1442 FILLER_0_7_317
*1443 FILLER_0_7_329
*1444 FILLER_0_7_39
*1445 FILLER_0_7_51
*1446 FILLER_0_7_55
*1447 FILLER_0_7_57
*1448 FILLER_0_7_69
*1449 FILLER_0_7_81
*1450 FILLER_0_7_93
*1451 FILLER_0_8_109
*1452 FILLER_0_8_121
*1453 FILLER_0_8_133
*1454 FILLER_0_8_139
*1455 FILLER_0_8_141
*1456 FILLER_0_8_15
*1457 FILLER_0_8_153
*1458 FILLER_0_8_165
*1459 FILLER_0_8_177
*1460 FILLER_0_8_189
*1461 FILLER_0_8_195
*1462 FILLER_0_8_197
*1463 FILLER_0_8_209
*1464 FILLER_0_8_221
*1465 FILLER_0_8_233
*1466 FILLER_0_8_245
*1467 FILLER_0_8_251
*1468 FILLER_0_8_253
*1469 FILLER_0_8_265
*1470 FILLER_0_8_27
*1471 FILLER_0_8_277
*1472 FILLER_0_8_289
*1473 FILLER_0_8_29
*1474 FILLER_0_8_3
*1475 FILLER_0_8_301
*1476 FILLER_0_8_307
*1477 FILLER_0_8_309
*1478 FILLER_0_8_321
*1479 FILLER_0_8_333
*1480 FILLER_0_8_41
*1481 FILLER_0_8_53
*1482 FILLER_0_8_65
*1483 FILLER_0_8_77
*1484 FILLER_0_8_83
*1485 FILLER_0_8_85
*1486 FILLER_0_8_97
*1487 FILLER_0_9_105
*1488 FILLER_0_9_111
*1489 FILLER_0_9_113
*1490 FILLER_0_9_125
*1491 FILLER_0_9_137
*1492 FILLER_0_9_149