*SPEF "ieee 1481-1999"
*DESIGN "tt_um_wokwi_395055359324730369"
*DATE "20:09:00 Sunday April 14, 2024"
*VENDOR "The OpenROAD Project"
*PROGRAM "OpenROAD"
*VERSION "0889970d1790a2617e69f253221b8bd7626e51dc"
*DESIGN_FLOW "NAME_SCOPE LOCAL" "PIN_CAP NONE"
*DIVIDER /
*DELIMITER :
*BUS_DELIMITER []
*T_UNIT 1 NS
*C_UNIT 1 PF
*R_UNIT 1 OHM
*L_UNIT 1 HENRY

*NAME_MAP
*3 clk
*4 ena
*5 rst_n
*6 ui_in[0]
*7 ui_in[1]
*8 ui_in[2]
*9 ui_in[3]
*10 ui_in[4]
*11 ui_in[5]
*12 ui_in[6]
*13 ui_in[7]
*14 uio_in[0]
*15 uio_in[1]
*16 uio_in[2]
*17 uio_in[3]
*18 uio_in[4]
*19 uio_in[5]
*20 uio_in[6]
*21 uio_in[7]
*22 net7
*23 net8
*24 net9
*25 net10
*26 net11
*27 net12
*28 net13
*29 net14
*30 net15
*31 net16
*32 net17
*33 net18
*34 net19
*35 net20
*36 net21
*37 net22
*38 uo_out[0]
*39 uo_out[1]
*40 uo_out[2]
*41 uo_out[3]
*42 uo_out[4]
*43 uo_out[5]
*44 uo_out[6]
*45 uo_out[7]
*46 _00_
*47 _01_
*48 _02_
*49 _03_
*50 _04_
*51 _05_
*52 _06_
*53 _07_
*54 and1\.b
*55 and2\.b
*56 and4\.out
*57 and5\.a
*58 and6\.b
*59 and7\.out
*60 and8\.out
*61 flop1\.d
*62 flop1\.q
*63 flop10\.clk
*64 flop10\.d
*65 flop10\.q
*66 flop11\.d
*67 flop11\.q
*68 flop12\.d
*69 flop13\.d
*70 flop15\.d
*71 flop15\.q
*72 flop16\.q
*73 flop17\.q
*74 flop18\.q
*75 flop19\.q
*76 flop2\.d
*77 flop2\.q
*78 flop20\.q
*79 flop22\.q
*80 flop3\.d
*81 flop3\.q
*82 flop4\.d
*83 flop4\.q
*84 flop5\.d
*85 flop5\.q
*86 flop6\.d
*87 flop6\.q
*88 flop7\.d
*89 flop7\.q
*90 flop8\.d
*91 flop8\.q
*92 flop9\.d
*93 net1
*94 net2
*95 net23
*96 net3
*97 net4
*98 net5
*99 net6
*100 or4\.out
*101 or5\.out
*102 or7\.out
*103 or8\.out
*104 or9\.out
*105 FILLER_0_0_109
*106 FILLER_0_0_113
*107 FILLER_0_0_125
*108 FILLER_0_0_137
*109 FILLER_0_0_141
*110 FILLER_0_0_15
*111 FILLER_0_0_153
*112 FILLER_0_0_165
*113 FILLER_0_0_169
*114 FILLER_0_0_181
*115 FILLER_0_0_193
*116 FILLER_0_0_197
*117 FILLER_0_0_209
*118 FILLER_0_0_221
*119 FILLER_0_0_225
*120 FILLER_0_0_237
*121 FILLER_0_0_249
*122 FILLER_0_0_253
*123 FILLER_0_0_265
*124 FILLER_0_0_27
*125 FILLER_0_0_277
*126 FILLER_0_0_281
*127 FILLER_0_0_29
*128 FILLER_0_0_293
*129 FILLER_0_0_3
*130 FILLER_0_0_305
*131 FILLER_0_0_309
*132 FILLER_0_0_321
*133 FILLER_0_0_333
*134 FILLER_0_0_41
*135 FILLER_0_0_53
*136 FILLER_0_0_57
*137 FILLER_0_0_69
*138 FILLER_0_0_81
*139 FILLER_0_0_85
*140 FILLER_0_0_97
*141 FILLER_0_10_109
*142 FILLER_0_10_121
*143 FILLER_0_10_133
*144 FILLER_0_10_139
*145 FILLER_0_10_141
*146 FILLER_0_10_15
*147 FILLER_0_10_153
*148 FILLER_0_10_165
*149 FILLER_0_10_177
*150 FILLER_0_10_189
*151 FILLER_0_10_195
*152 FILLER_0_10_197
*153 FILLER_0_10_209
*154 FILLER_0_10_221
*155 FILLER_0_10_233
*156 FILLER_0_10_245
*157 FILLER_0_10_251
*158 FILLER_0_10_253
*159 FILLER_0_10_265
*160 FILLER_0_10_27
*161 FILLER_0_10_277
*162 FILLER_0_10_289
*163 FILLER_0_10_29
*164 FILLER_0_10_3
*165 FILLER_0_10_301
*166 FILLER_0_10_307
*167 FILLER_0_10_309
*168 FILLER_0_10_321
*169 FILLER_0_10_333
*170 FILLER_0_10_41
*171 FILLER_0_10_53
*172 FILLER_0_10_65
*173 FILLER_0_10_77
*174 FILLER_0_10_83
*175 FILLER_0_10_85
*176 FILLER_0_10_97
*177 FILLER_0_11_105
*178 FILLER_0_11_111
*179 FILLER_0_11_113
*180 FILLER_0_11_125
*181 FILLER_0_11_137
*182 FILLER_0_11_149
*183 FILLER_0_11_15
*184 FILLER_0_11_161
*185 FILLER_0_11_167
*186 FILLER_0_11_169
*187 FILLER_0_11_181
*188 FILLER_0_11_193
*189 FILLER_0_11_205
*190 FILLER_0_11_217
*191 FILLER_0_11_223
*192 FILLER_0_11_225
*193 FILLER_0_11_237
*194 FILLER_0_11_249
*195 FILLER_0_11_261
*196 FILLER_0_11_27
*197 FILLER_0_11_273
*198 FILLER_0_11_279
*199 FILLER_0_11_281
*200 FILLER_0_11_293
*201 FILLER_0_11_3
*202 FILLER_0_11_305
*203 FILLER_0_11_317
*204 FILLER_0_11_329
*205 FILLER_0_11_39
*206 FILLER_0_11_51
*207 FILLER_0_11_55
*208 FILLER_0_11_57
*209 FILLER_0_11_69
*210 FILLER_0_11_81
*211 FILLER_0_11_93
*212 FILLER_0_12_109
*213 FILLER_0_12_121
*214 FILLER_0_12_133
*215 FILLER_0_12_139
*216 FILLER_0_12_141
*217 FILLER_0_12_15
*218 FILLER_0_12_153
*219 FILLER_0_12_165
*220 FILLER_0_12_177
*221 FILLER_0_12_189
*222 FILLER_0_12_195
*223 FILLER_0_12_197
*224 FILLER_0_12_209
*225 FILLER_0_12_221
*226 FILLER_0_12_233
*227 FILLER_0_12_245
*228 FILLER_0_12_251
*229 FILLER_0_12_253
*230 FILLER_0_12_265
*231 FILLER_0_12_27
*232 FILLER_0_12_277
*233 FILLER_0_12_289
*234 FILLER_0_12_29
*235 FILLER_0_12_3
*236 FILLER_0_12_301
*237 FILLER_0_12_307
*238 FILLER_0_12_309
*239 FILLER_0_12_321
*240 FILLER_0_12_333
*241 FILLER_0_12_41
*242 FILLER_0_12_53
*243 FILLER_0_12_65
*244 FILLER_0_12_77
*245 FILLER_0_12_83
*246 FILLER_0_12_85
*247 FILLER_0_12_97
*248 FILLER_0_13_105
*249 FILLER_0_13_111
*250 FILLER_0_13_113
*251 FILLER_0_13_125
*252 FILLER_0_13_137
*253 FILLER_0_13_149
*254 FILLER_0_13_15
*255 FILLER_0_13_161
*256 FILLER_0_13_167
*257 FILLER_0_13_169
*258 FILLER_0_13_181
*259 FILLER_0_13_193
*260 FILLER_0_13_205
*261 FILLER_0_13_217
*262 FILLER_0_13_223
*263 FILLER_0_13_225
*264 FILLER_0_13_237
*265 FILLER_0_13_249
*266 FILLER_0_13_261
*267 FILLER_0_13_27
*268 FILLER_0_13_273
*269 FILLER_0_13_279
*270 FILLER_0_13_281
*271 FILLER_0_13_293
*272 FILLER_0_13_3
*273 FILLER_0_13_305
*274 FILLER_0_13_317
*275 FILLER_0_13_329
*276 FILLER_0_13_39
*277 FILLER_0_13_51
*278 FILLER_0_13_55
*279 FILLER_0_13_57
*280 FILLER_0_13_69
*281 FILLER_0_13_81
*282 FILLER_0_13_93
*283 FILLER_0_14_109
*284 FILLER_0_14_121
*285 FILLER_0_14_133
*286 FILLER_0_14_139
*287 FILLER_0_14_141
*288 FILLER_0_14_15
*289 FILLER_0_14_153
*290 FILLER_0_14_165
*291 FILLER_0_14_177
*292 FILLER_0_14_189
*293 FILLER_0_14_195
*294 FILLER_0_14_197
*295 FILLER_0_14_209
*296 FILLER_0_14_221
*297 FILLER_0_14_233
*298 FILLER_0_14_245
*299 FILLER_0_14_251
*300 FILLER_0_14_253
*301 FILLER_0_14_265
*302 FILLER_0_14_27
*303 FILLER_0_14_277
*304 FILLER_0_14_289
*305 FILLER_0_14_29
*306 FILLER_0_14_3
*307 FILLER_0_14_301
*308 FILLER_0_14_307
*309 FILLER_0_14_309
*310 FILLER_0_14_321
*311 FILLER_0_14_333
*312 FILLER_0_14_41
*313 FILLER_0_14_53
*314 FILLER_0_14_65
*315 FILLER_0_14_77
*316 FILLER_0_14_83
*317 FILLER_0_14_85
*318 FILLER_0_14_97
*319 FILLER_0_15_105
*320 FILLER_0_15_111
*321 FILLER_0_15_113
*322 FILLER_0_15_125
*323 FILLER_0_15_137
*324 FILLER_0_15_149
*325 FILLER_0_15_15
*326 FILLER_0_15_161
*327 FILLER_0_15_167
*328 FILLER_0_15_169
*329 FILLER_0_15_181
*330 FILLER_0_15_193
*331 FILLER_0_15_205
*332 FILLER_0_15_217
*333 FILLER_0_15_223
*334 FILLER_0_15_225
*335 FILLER_0_15_237
*336 FILLER_0_15_249
*337 FILLER_0_15_261
*338 FILLER_0_15_27
*339 FILLER_0_15_273
*340 FILLER_0_15_279
*341 FILLER_0_15_281
*342 FILLER_0_15_293
*343 FILLER_0_15_3
*344 FILLER_0_15_305
*345 FILLER_0_15_317
*346 FILLER_0_15_329
*347 FILLER_0_15_39
*348 FILLER_0_15_51
*349 FILLER_0_15_55
*350 FILLER_0_15_57
*351 FILLER_0_15_69
*352 FILLER_0_15_81
*353 FILLER_0_15_93
*354 FILLER_0_16_109
*355 FILLER_0_16_121
*356 FILLER_0_16_133
*357 FILLER_0_16_139
*358 FILLER_0_16_141
*359 FILLER_0_16_15
*360 FILLER_0_16_153
*361 FILLER_0_16_165
*362 FILLER_0_16_177
*363 FILLER_0_16_189
*364 FILLER_0_16_195
*365 FILLER_0_16_197
*366 FILLER_0_16_209
*367 FILLER_0_16_221
*368 FILLER_0_16_233
*369 FILLER_0_16_245
*370 FILLER_0_16_251
*371 FILLER_0_16_253
*372 FILLER_0_16_265
*373 FILLER_0_16_27
*374 FILLER_0_16_277
*375 FILLER_0_16_289
*376 FILLER_0_16_29
*377 FILLER_0_16_3
*378 FILLER_0_16_301
*379 FILLER_0_16_307
*380 FILLER_0_16_309
*381 FILLER_0_16_321
*382 FILLER_0_16_333
*383 FILLER_0_16_41
*384 FILLER_0_16_53
*385 FILLER_0_16_65
*386 FILLER_0_16_77
*387 FILLER_0_16_83
*388 FILLER_0_16_85
*389 FILLER_0_16_97
*390 FILLER_0_17_105
*391 FILLER_0_17_111
*392 FILLER_0_17_113
*393 FILLER_0_17_125
*394 FILLER_0_17_137
*395 FILLER_0_17_149
*396 FILLER_0_17_15
*397 FILLER_0_17_161
*398 FILLER_0_17_167
*399 FILLER_0_17_169
*400 FILLER_0_17_181
*401 FILLER_0_17_193
*402 FILLER_0_17_205
*403 FILLER_0_17_217
*404 FILLER_0_17_223
*405 FILLER_0_17_225
*406 FILLER_0_17_237
*407 FILLER_0_17_249
*408 FILLER_0_17_261
*409 FILLER_0_17_27
*410 FILLER_0_17_273
*411 FILLER_0_17_279
*412 FILLER_0_17_281
*413 FILLER_0_17_293
*414 FILLER_0_17_3
*415 FILLER_0_17_305
*416 FILLER_0_17_317
*417 FILLER_0_17_329
*418 FILLER_0_17_39
*419 FILLER_0_17_51
*420 FILLER_0_17_55
*421 FILLER_0_17_57
*422 FILLER_0_17_69
*423 FILLER_0_17_81
*424 FILLER_0_17_93
*425 FILLER_0_18_109
*426 FILLER_0_18_121
*427 FILLER_0_18_133
*428 FILLER_0_18_139
*429 FILLER_0_18_141
*430 FILLER_0_18_15
*431 FILLER_0_18_153
*432 FILLER_0_18_165
*433 FILLER_0_18_177
*434 FILLER_0_18_189
*435 FILLER_0_18_195
*436 FILLER_0_18_197
*437 FILLER_0_18_209
*438 FILLER_0_18_221
*439 FILLER_0_18_233
*440 FILLER_0_18_245
*441 FILLER_0_18_251
*442 FILLER_0_18_253
*443 FILLER_0_18_265
*444 FILLER_0_18_27
*445 FILLER_0_18_277
*446 FILLER_0_18_289
*447 FILLER_0_18_29
*448 FILLER_0_18_3
*449 FILLER_0_18_301
*450 FILLER_0_18_307
*451 FILLER_0_18_309
*452 FILLER_0_18_321
*453 FILLER_0_18_333
*454 FILLER_0_18_41
*455 FILLER_0_18_53
*456 FILLER_0_18_65
*457 FILLER_0_18_77
*458 FILLER_0_18_83
*459 FILLER_0_18_85
*460 FILLER_0_18_97
*461 FILLER_0_19_105
*462 FILLER_0_19_111
*463 FILLER_0_19_113
*464 FILLER_0_19_125
*465 FILLER_0_19_137
*466 FILLER_0_19_149
*467 FILLER_0_19_15
*468 FILLER_0_19_161
*469 FILLER_0_19_167
*470 FILLER_0_19_169
*471 FILLER_0_19_181
*472 FILLER_0_19_193
*473 FILLER_0_19_205
*474 FILLER_0_19_217
*475 FILLER_0_19_223
*476 FILLER_0_19_225
*477 FILLER_0_19_237
*478 FILLER_0_19_249
*479 FILLER_0_19_261
*480 FILLER_0_19_27
*481 FILLER_0_19_273
*482 FILLER_0_19_279
*483 FILLER_0_19_281
*484 FILLER_0_19_293
*485 FILLER_0_19_3
*486 FILLER_0_19_305
*487 FILLER_0_19_317
*488 FILLER_0_19_329
*489 FILLER_0_19_39
*490 FILLER_0_19_51
*491 FILLER_0_19_55
*492 FILLER_0_19_57
*493 FILLER_0_19_69
*494 FILLER_0_19_81
*495 FILLER_0_19_93
*496 FILLER_0_1_105
*497 FILLER_0_1_111
*498 FILLER_0_1_113
*499 FILLER_0_1_125
*500 FILLER_0_1_137
*501 FILLER_0_1_149
*502 FILLER_0_1_15
*503 FILLER_0_1_161
*504 FILLER_0_1_167
*505 FILLER_0_1_169
*506 FILLER_0_1_181
*507 FILLER_0_1_193
*508 FILLER_0_1_205
*509 FILLER_0_1_217
*510 FILLER_0_1_223
*511 FILLER_0_1_225
*512 FILLER_0_1_237
*513 FILLER_0_1_249
*514 FILLER_0_1_261
*515 FILLER_0_1_27
*516 FILLER_0_1_273
*517 FILLER_0_1_279
*518 FILLER_0_1_281
*519 FILLER_0_1_293
*520 FILLER_0_1_3
*521 FILLER_0_1_305
*522 FILLER_0_1_317
*523 FILLER_0_1_329
*524 FILLER_0_1_39
*525 FILLER_0_1_51
*526 FILLER_0_1_55
*527 FILLER_0_1_57
*528 FILLER_0_1_69
*529 FILLER_0_1_81
*530 FILLER_0_1_93
*531 FILLER_0_20_109
*532 FILLER_0_20_121
*533 FILLER_0_20_133
*534 FILLER_0_20_139
*535 FILLER_0_20_141
*536 FILLER_0_20_15
*537 FILLER_0_20_153
*538 FILLER_0_20_165
*539 FILLER_0_20_177
*540 FILLER_0_20_189
*541 FILLER_0_20_195
*542 FILLER_0_20_197
*543 FILLER_0_20_209
*544 FILLER_0_20_221
*545 FILLER_0_20_233
*546 FILLER_0_20_245
*547 FILLER_0_20_251
*548 FILLER_0_20_253
*549 FILLER_0_20_265
*550 FILLER_0_20_27
*551 FILLER_0_20_277
*552 FILLER_0_20_289
*553 FILLER_0_20_29
*554 FILLER_0_20_3
*555 FILLER_0_20_301
*556 FILLER_0_20_307
*557 FILLER_0_20_309
*558 FILLER_0_20_321
*559 FILLER_0_20_333
*560 FILLER_0_20_41
*561 FILLER_0_20_53
*562 FILLER_0_20_65
*563 FILLER_0_20_77
*564 FILLER_0_20_83
*565 FILLER_0_20_85
*566 FILLER_0_20_97
*567 FILLER_0_21_105
*568 FILLER_0_21_111
*569 FILLER_0_21_113
*570 FILLER_0_21_125
*571 FILLER_0_21_137
*572 FILLER_0_21_149
*573 FILLER_0_21_15
*574 FILLER_0_21_161
*575 FILLER_0_21_167
*576 FILLER_0_21_169
*577 FILLER_0_21_181
*578 FILLER_0_21_193
*579 FILLER_0_21_205
*580 FILLER_0_21_217
*581 FILLER_0_21_223
*582 FILLER_0_21_225
*583 FILLER_0_21_237
*584 FILLER_0_21_249
*585 FILLER_0_21_261
*586 FILLER_0_21_27
*587 FILLER_0_21_273
*588 FILLER_0_21_279
*589 FILLER_0_21_281
*590 FILLER_0_21_293
*591 FILLER_0_21_3
*592 FILLER_0_21_305
*593 FILLER_0_21_317
*594 FILLER_0_21_329
*595 FILLER_0_21_39
*596 FILLER_0_21_51
*597 FILLER_0_21_55
*598 FILLER_0_21_57
*599 FILLER_0_21_69
*600 FILLER_0_21_81
*601 FILLER_0_21_93
*602 FILLER_0_22_109
*603 FILLER_0_22_121
*604 FILLER_0_22_133
*605 FILLER_0_22_139
*606 FILLER_0_22_141
*607 FILLER_0_22_15
*608 FILLER_0_22_153
*609 FILLER_0_22_165
*610 FILLER_0_22_177
*611 FILLER_0_22_189
*612 FILLER_0_22_195
*613 FILLER_0_22_197
*614 FILLER_0_22_209
*615 FILLER_0_22_221
*616 FILLER_0_22_233
*617 FILLER_0_22_245
*618 FILLER_0_22_251
*619 FILLER_0_22_253
*620 FILLER_0_22_265
*621 FILLER_0_22_27
*622 FILLER_0_22_277
*623 FILLER_0_22_289
*624 FILLER_0_22_29
*625 FILLER_0_22_3
*626 FILLER_0_22_301
*627 FILLER_0_22_307
*628 FILLER_0_22_309
*629 FILLER_0_22_321
*630 FILLER_0_22_333
*631 FILLER_0_22_41
*632 FILLER_0_22_53
*633 FILLER_0_22_65
*634 FILLER_0_22_77
*635 FILLER_0_22_83
*636 FILLER_0_22_85
*637 FILLER_0_22_97
*638 FILLER_0_23_105
*639 FILLER_0_23_111
*640 FILLER_0_23_113
*641 FILLER_0_23_125
*642 FILLER_0_23_137
*643 FILLER_0_23_149
*644 FILLER_0_23_15
*645 FILLER_0_23_161
*646 FILLER_0_23_167
*647 FILLER_0_23_169
*648 FILLER_0_23_181
*649 FILLER_0_23_193
*650 FILLER_0_23_205
*651 FILLER_0_23_217
*652 FILLER_0_23_223
*653 FILLER_0_23_225
*654 FILLER_0_23_237
*655 FILLER_0_23_249
*656 FILLER_0_23_261
*657 FILLER_0_23_27
*658 FILLER_0_23_273
*659 FILLER_0_23_279
*660 FILLER_0_23_281
*661 FILLER_0_23_293
*662 FILLER_0_23_3
*663 FILLER_0_23_305
*664 FILLER_0_23_317
*665 FILLER_0_23_329
*666 FILLER_0_23_39
*667 FILLER_0_23_51
*668 FILLER_0_23_55
*669 FILLER_0_23_57
*670 FILLER_0_23_69
*671 FILLER_0_23_81
*672 FILLER_0_23_93
*673 FILLER_0_24_109
*674 FILLER_0_24_121
*675 FILLER_0_24_133
*676 FILLER_0_24_139
*677 FILLER_0_24_141
*678 FILLER_0_24_15
*679 FILLER_0_24_153
*680 FILLER_0_24_165
*681 FILLER_0_24_177
*682 FILLER_0_24_189
*683 FILLER_0_24_195
*684 FILLER_0_24_197
*685 FILLER_0_24_209
*686 FILLER_0_24_221
*687 FILLER_0_24_233
*688 FILLER_0_24_245
*689 FILLER_0_24_251
*690 FILLER_0_24_253
*691 FILLER_0_24_265
*692 FILLER_0_24_27
*693 FILLER_0_24_277
*694 FILLER_0_24_289
*695 FILLER_0_24_29
*696 FILLER_0_24_3
*697 FILLER_0_24_301
*698 FILLER_0_24_307
*699 FILLER_0_24_309
*700 FILLER_0_24_321
*701 FILLER_0_24_333
*702 FILLER_0_24_41
*703 FILLER_0_24_53
*704 FILLER_0_24_65
*705 FILLER_0_24_77
*706 FILLER_0_24_83
*707 FILLER_0_24_85
*708 FILLER_0_24_97
*709 FILLER_0_25_105
*710 FILLER_0_25_111
*711 FILLER_0_25_113
*712 FILLER_0_25_125
*713 FILLER_0_25_137
*714 FILLER_0_25_149
*715 FILLER_0_25_15
*716 FILLER_0_25_161
*717 FILLER_0_25_167
*718 FILLER_0_25_169
*719 FILLER_0_25_181
*720 FILLER_0_25_193
*721 FILLER_0_25_205
*722 FILLER_0_25_217
*723 FILLER_0_25_223
*724 FILLER_0_25_225
*725 FILLER_0_25_237
*726 FILLER_0_25_249
*727 FILLER_0_25_261
*728 FILLER_0_25_27
*729 FILLER_0_25_273
*730 FILLER_0_25_279
*731 FILLER_0_25_281
*732 FILLER_0_25_293
*733 FILLER_0_25_3
*734 FILLER_0_25_305
*735 FILLER_0_25_317
*736 FILLER_0_25_329
*737 FILLER_0_25_39
*738 FILLER_0_25_51
*739 FILLER_0_25_55
*740 FILLER_0_25_57
*741 FILLER_0_25_69
*742 FILLER_0_25_81
*743 FILLER_0_25_93
*744 FILLER_0_26_109
*745 FILLER_0_26_121
*746 FILLER_0_26_133
*747 FILLER_0_26_139
*748 FILLER_0_26_141
*749 FILLER_0_26_15
*750 FILLER_0_26_153
*751 FILLER_0_26_165
*752 FILLER_0_26_177
*753 FILLER_0_26_189
*754 FILLER_0_26_195
*755 FILLER_0_26_197
*756 FILLER_0_26_209
*757 FILLER_0_26_221
*758 FILLER_0_26_233
*759 FILLER_0_26_245
*760 FILLER_0_26_251
*761 FILLER_0_26_253
*762 FILLER_0_26_265
*763 FILLER_0_26_27
*764 FILLER_0_26_277
*765 FILLER_0_26_289
*766 FILLER_0_26_29
*767 FILLER_0_26_3
*768 FILLER_0_26_301
*769 FILLER_0_26_307
*770 FILLER_0_26_309
*771 FILLER_0_26_321
*772 FILLER_0_26_333
*773 FILLER_0_26_41
*774 FILLER_0_26_53
*775 FILLER_0_26_65
*776 FILLER_0_26_77
*777 FILLER_0_26_83
*778 FILLER_0_26_85
*779 FILLER_0_26_97
*780 FILLER_0_27_105
*781 FILLER_0_27_111
*782 FILLER_0_27_113
*783 FILLER_0_27_125
*784 FILLER_0_27_137
*785 FILLER_0_27_149
*786 FILLER_0_27_15
*787 FILLER_0_27_161
*788 FILLER_0_27_167
*789 FILLER_0_27_169
*790 FILLER_0_27_181
*791 FILLER_0_27_193
*792 FILLER_0_27_205
*793 FILLER_0_27_217
*794 FILLER_0_27_223
*795 FILLER_0_27_225
*796 FILLER_0_27_237
*797 FILLER_0_27_249
*798 FILLER_0_27_261
*799 FILLER_0_27_27
*800 FILLER_0_27_273
*801 FILLER_0_27_279
*802 FILLER_0_27_281
*803 FILLER_0_27_293
*804 FILLER_0_27_3
*805 FILLER_0_27_305
*806 FILLER_0_27_317
*807 FILLER_0_27_329
*808 FILLER_0_27_39
*809 FILLER_0_27_51
*810 FILLER_0_27_55
*811 FILLER_0_27_57
*812 FILLER_0_27_69
*813 FILLER_0_27_81
*814 FILLER_0_27_93
*815 FILLER_0_28_109
*816 FILLER_0_28_121
*817 FILLER_0_28_133
*818 FILLER_0_28_139
*819 FILLER_0_28_141
*820 FILLER_0_28_15
*821 FILLER_0_28_153
*822 FILLER_0_28_165
*823 FILLER_0_28_177
*824 FILLER_0_28_189
*825 FILLER_0_28_195
*826 FILLER_0_28_197
*827 FILLER_0_28_209
*828 FILLER_0_28_221
*829 FILLER_0_28_233
*830 FILLER_0_28_245
*831 FILLER_0_28_251
*832 FILLER_0_28_253
*833 FILLER_0_28_265
*834 FILLER_0_28_27
*835 FILLER_0_28_277
*836 FILLER_0_28_289
*837 FILLER_0_28_29
*838 FILLER_0_28_3
*839 FILLER_0_28_301
*840 FILLER_0_28_307
*841 FILLER_0_28_309
*842 FILLER_0_28_321
*843 FILLER_0_28_333
*844 FILLER_0_28_41
*845 FILLER_0_28_53
*846 FILLER_0_28_65
*847 FILLER_0_28_77
*848 FILLER_0_28_83
*849 FILLER_0_28_85
*850 FILLER_0_28_97
*851 FILLER_0_29_105
*852 FILLER_0_29_111
*853 FILLER_0_29_113
*854 FILLER_0_29_125
*855 FILLER_0_29_137
*856 FILLER_0_29_149
*857 FILLER_0_29_15
*858 FILLER_0_29_161
*859 FILLER_0_29_167
*860 FILLER_0_29_169
*861 FILLER_0_29_181
*862 FILLER_0_29_193
*863 FILLER_0_29_205
*864 FILLER_0_29_217
*865 FILLER_0_29_223
*866 FILLER_0_29_225
*867 FILLER_0_29_237
*868 FILLER_0_29_249
*869 FILLER_0_29_261
*870 FILLER_0_29_27
*871 FILLER_0_29_273
*872 FILLER_0_29_279
*873 FILLER_0_29_281
*874 FILLER_0_29_293
*875 FILLER_0_29_3
*876 FILLER_0_29_305
*877 FILLER_0_29_317
*878 FILLER_0_29_329
*879 FILLER_0_29_39
*880 FILLER_0_29_51
*881 FILLER_0_29_55
*882 FILLER_0_29_57
*883 FILLER_0_29_69
*884 FILLER_0_29_81
*885 FILLER_0_29_93
*886 FILLER_0_2_109
*887 FILLER_0_2_121
*888 FILLER_0_2_133
*889 FILLER_0_2_139
*890 FILLER_0_2_141
*891 FILLER_0_2_15
*892 FILLER_0_2_153
*893 FILLER_0_2_165
*894 FILLER_0_2_177
*895 FILLER_0_2_189
*896 FILLER_0_2_195
*897 FILLER_0_2_197
*898 FILLER_0_2_209
*899 FILLER_0_2_221
*900 FILLER_0_2_233
*901 FILLER_0_2_245
*902 FILLER_0_2_251
*903 FILLER_0_2_253
*904 FILLER_0_2_265
*905 FILLER_0_2_27
*906 FILLER_0_2_277
*907 FILLER_0_2_289
*908 FILLER_0_2_29
*909 FILLER_0_2_3
*910 FILLER_0_2_301
*911 FILLER_0_2_307
*912 FILLER_0_2_309
*913 FILLER_0_2_321
*914 FILLER_0_2_333
*915 FILLER_0_2_41
*916 FILLER_0_2_53
*917 FILLER_0_2_65
*918 FILLER_0_2_77
*919 FILLER_0_2_83
*920 FILLER_0_2_85
*921 FILLER_0_2_97
*922 FILLER_0_30_109
*923 FILLER_0_30_121
*924 FILLER_0_30_133
*925 FILLER_0_30_139
*926 FILLER_0_30_141
*927 FILLER_0_30_15
*928 FILLER_0_30_153
*929 FILLER_0_30_165
*930 FILLER_0_30_177
*931 FILLER_0_30_189
*932 FILLER_0_30_195
*933 FILLER_0_30_197
*934 FILLER_0_30_209
*935 FILLER_0_30_221
*936 FILLER_0_30_233
*937 FILLER_0_30_245
*938 FILLER_0_30_251
*939 FILLER_0_30_253
*940 FILLER_0_30_265
*941 FILLER_0_30_27
*942 FILLER_0_30_277
*943 FILLER_0_30_289
*944 FILLER_0_30_29
*945 FILLER_0_30_3
*946 FILLER_0_30_301
*947 FILLER_0_30_307
*948 FILLER_0_30_309
*949 FILLER_0_30_321
*950 FILLER_0_30_333
*951 FILLER_0_30_41
*952 FILLER_0_30_53
*953 FILLER_0_30_65
*954 FILLER_0_30_77
*955 FILLER_0_30_83
*956 FILLER_0_30_85
*957 FILLER_0_30_97
*958 FILLER_0_31_105
*959 FILLER_0_31_111
*960 FILLER_0_31_113
*961 FILLER_0_31_125
*962 FILLER_0_31_137
*963 FILLER_0_31_149
*964 FILLER_0_31_15
*965 FILLER_0_31_161
*966 FILLER_0_31_167
*967 FILLER_0_31_169
*968 FILLER_0_31_181
*969 FILLER_0_31_193
*970 FILLER_0_31_205
*971 FILLER_0_31_217
*972 FILLER_0_31_223
*973 FILLER_0_31_225
*974 FILLER_0_31_237
*975 FILLER_0_31_249
*976 FILLER_0_31_261
*977 FILLER_0_31_27
*978 FILLER_0_31_273
*979 FILLER_0_31_279
*980 FILLER_0_31_281
*981 FILLER_0_31_293
*982 FILLER_0_31_297
*983 FILLER_0_31_3
*984 FILLER_0_31_301
*985 FILLER_0_31_313
*986 FILLER_0_31_325
*987 FILLER_0_31_333
*988 FILLER_0_31_39
*989 FILLER_0_31_51
*990 FILLER_0_31_55
*991 FILLER_0_31_57
*992 FILLER_0_31_69
*993 FILLER_0_31_81
*994 FILLER_0_31_93
*995 FILLER_0_32_109
*996 FILLER_0_32_121
*997 FILLER_0_32_133
*998 FILLER_0_32_139
*999 FILLER_0_32_141
*1000 FILLER_0_32_15
*1001 FILLER_0_32_153
*1002 FILLER_0_32_165
*1003 FILLER_0_32_177
*1004 FILLER_0_32_189
*1005 FILLER_0_32_195
*1006 FILLER_0_32_197
*1007 FILLER_0_32_209
*1008 FILLER_0_32_221
*1009 FILLER_0_32_233
*1010 FILLER_0_32_245
*1011 FILLER_0_32_251
*1012 FILLER_0_32_253
*1013 FILLER_0_32_265
*1014 FILLER_0_32_27
*1015 FILLER_0_32_286
*1016 FILLER_0_32_29
*1017 FILLER_0_32_3
*1018 FILLER_0_32_309
*1019 FILLER_0_32_321
*1020 FILLER_0_32_333
*1021 FILLER_0_32_41
*1022 FILLER_0_32_53
*1023 FILLER_0_32_65
*1024 FILLER_0_32_77
*1025 FILLER_0_32_83
*1026 FILLER_0_32_85
*1027 FILLER_0_32_97
*1028 FILLER_0_33_105
*1029 FILLER_0_33_111
*1030 FILLER_0_33_113
*1031 FILLER_0_33_125
*1032 FILLER_0_33_137
*1033 FILLER_0_33_149
*1034 FILLER_0_33_15
*1035 FILLER_0_33_161
*1036 FILLER_0_33_167
*1037 FILLER_0_33_169
*1038 FILLER_0_33_181
*1039 FILLER_0_33_193
*1040 FILLER_0_33_205
*1041 FILLER_0_33_217
*1042 FILLER_0_33_223
*1043 FILLER_0_33_225
*1044 FILLER_0_33_237
*1045 FILLER_0_33_244
*1046 FILLER_0_33_269
*1047 FILLER_0_33_27
*1048 FILLER_0_33_277
*1049 FILLER_0_33_281
*1050 FILLER_0_33_3
*1051 FILLER_0_33_303
*1052 FILLER_0_33_315
*1053 FILLER_0_33_327
*1054 FILLER_0_33_39
*1055 FILLER_0_33_51
*1056 FILLER_0_33_55
*1057 FILLER_0_33_57
*1058 FILLER_0_33_69
*1059 FILLER_0_33_81
*1060 FILLER_0_33_93
*1061 FILLER_0_34_109
*1062 FILLER_0_34_121
*1063 FILLER_0_34_133
*1064 FILLER_0_34_139
*1065 FILLER_0_34_141
*1066 FILLER_0_34_15
*1067 FILLER_0_34_153
*1068 FILLER_0_34_165
*1069 FILLER_0_34_174
*1070 FILLER_0_34_186
*1071 FILLER_0_34_194
*1072 FILLER_0_34_197
*1073 FILLER_0_34_221
*1074 FILLER_0_34_233
*1075 FILLER_0_34_250
*1076 FILLER_0_34_253
*1077 FILLER_0_34_257
*1078 FILLER_0_34_264
*1079 FILLER_0_34_27
*1080 FILLER_0_34_276
*1081 FILLER_0_34_282
*1082 FILLER_0_34_29
*1083 FILLER_0_34_294
*1084 FILLER_0_34_299
*1085 FILLER_0_34_3
*1086 FILLER_0_34_307
*1087 FILLER_0_34_309
*1088 FILLER_0_34_321
*1089 FILLER_0_34_333
*1090 FILLER_0_34_41
*1091 FILLER_0_34_53
*1092 FILLER_0_34_65
*1093 FILLER_0_34_77
*1094 FILLER_0_34_83
*1095 FILLER_0_34_85
*1096 FILLER_0_34_97
*1097 FILLER_0_35_105
*1098 FILLER_0_35_111
*1099 FILLER_0_35_113
*1100 FILLER_0_35_125
*1101 FILLER_0_35_137
*1102 FILLER_0_35_145
*1103 FILLER_0_35_15
*1104 FILLER_0_35_209
*1105 FILLER_0_35_221
*1106 FILLER_0_35_225
*1107 FILLER_0_35_237
*1108 FILLER_0_35_245
*1109 FILLER_0_35_27
*1110 FILLER_0_35_279
*1111 FILLER_0_35_3
*1112 FILLER_0_35_313
*1113 FILLER_0_35_325
*1114 FILLER_0_35_333
*1115 FILLER_0_35_39
*1116 FILLER_0_35_51
*1117 FILLER_0_35_55
*1118 FILLER_0_35_57
*1119 FILLER_0_35_69
*1120 FILLER_0_35_81
*1121 FILLER_0_35_93
*1122 FILLER_0_36_109
*1123 FILLER_0_36_121
*1124 FILLER_0_36_133
*1125 FILLER_0_36_139
*1126 FILLER_0_36_141
*1127 FILLER_0_36_15
*1128 FILLER_0_36_153
*1129 FILLER_0_36_174
*1130 FILLER_0_36_186
*1131 FILLER_0_36_194
*1132 FILLER_0_36_197
*1133 FILLER_0_36_204
*1134 FILLER_0_36_210
*1135 FILLER_0_36_222
*1136 FILLER_0_36_234
*1137 FILLER_0_36_246
*1138 FILLER_0_36_253
*1139 FILLER_0_36_265
*1140 FILLER_0_36_27
*1141 FILLER_0_36_277
*1142 FILLER_0_36_289
*1143 FILLER_0_36_29
*1144 FILLER_0_36_296
*1145 FILLER_0_36_3
*1146 FILLER_0_36_305
*1147 FILLER_0_36_309
*1148 FILLER_0_36_317
*1149 FILLER_0_36_41
*1150 FILLER_0_36_53
*1151 FILLER_0_36_65
*1152 FILLER_0_36_77
*1153 FILLER_0_36_83
*1154 FILLER_0_36_85
*1155 FILLER_0_36_97
*1156 FILLER_0_37_105
*1157 FILLER_0_37_111
*1158 FILLER_0_37_113
*1159 FILLER_0_37_125
*1160 FILLER_0_37_137
*1161 FILLER_0_37_15
*1162 FILLER_0_37_157
*1163 FILLER_0_37_165
*1164 FILLER_0_37_169
*1165 FILLER_0_37_173
*1166 FILLER_0_37_180
*1167 FILLER_0_37_184
*1168 FILLER_0_37_194
*1169 FILLER_0_37_249
*1170 FILLER_0_37_27
*1171 FILLER_0_37_275
*1172 FILLER_0_37_279
*1173 FILLER_0_37_3
*1174 FILLER_0_37_332
*1175 FILLER_0_37_39
*1176 FILLER_0_37_51
*1177 FILLER_0_37_55
*1178 FILLER_0_37_57
*1179 FILLER_0_37_69
*1180 FILLER_0_37_81
*1181 FILLER_0_37_93
*1182 FILLER_0_38_10
*1183 FILLER_0_38_102
*1184 FILLER_0_38_106
*1185 FILLER_0_38_110
*1186 FILLER_0_38_113
*1187 FILLER_0_38_118
*1188 FILLER_0_38_122
*1189 FILLER_0_38_126
*1190 FILLER_0_38_132
*1191 FILLER_0_38_137
*1192 FILLER_0_38_14
*1193 FILLER_0_38_145
*1194 FILLER_0_38_151
*1195 FILLER_0_38_156
*1196 FILLER_0_38_164
*1197 FILLER_0_38_169
*1198 FILLER_0_38_178
*1199 FILLER_0_38_18
*1200 FILLER_0_38_190
*1201 FILLER_0_38_197
*1202 FILLER_0_38_202
*1203 FILLER_0_38_214
*1204 FILLER_0_38_22
*1205 FILLER_0_38_222
*1206 FILLER_0_38_225
*1207 FILLER_0_38_237
*1208 FILLER_0_38_253
*1209 FILLER_0_38_279
*1210 FILLER_0_38_291
*1211 FILLER_0_38_303
*1212 FILLER_0_38_307
*1213 FILLER_0_38_32
*1214 FILLER_0_38_321
*1215 FILLER_0_38_333
*1216 FILLER_0_38_38
*1217 FILLER_0_38_42
*1218 FILLER_0_38_46
*1219 FILLER_0_38_50
*1220 FILLER_0_38_54
*1221 FILLER_0_38_57
*1222 FILLER_0_38_6
*1223 FILLER_0_38_62
*1224 FILLER_0_38_66
*1225 FILLER_0_38_70
*1226 FILLER_0_38_74
*1227 FILLER_0_38_78
*1228 FILLER_0_38_88
*1229 FILLER_0_38_94
*1230 FILLER_0_38_98
*1231 FILLER_0_3_105
*1232 FILLER_0_3_111
*1233 FILLER_0_3_113
*1234 FILLER_0_3_125
*1235 FILLER_0_3_137
*1236 FILLER_0_3_149
*1237 FILLER_0_3_15
*1238 FILLER_0_3_161
*1239 FILLER_0_3_167
*1240 FILLER_0_3_169
*1241 FILLER_0_3_181
*1242 FILLER_0_3_193
*1243 FILLER_0_3_205
*1244 FILLER_0_3_217
*1245 FILLER_0_3_223
*1246 FILLER_0_3_225
*1247 FILLER_0_3_237
*1248 FILLER_0_3_249
*1249 FILLER_0_3_261
*1250 FILLER_0_3_27
*1251 FILLER_0_3_273
*1252 FILLER_0_3_279
*1253 FILLER_0_3_281
*1254 FILLER_0_3_293
*1255 FILLER_0_3_3
*1256 FILLER_0_3_305
*1257 FILLER_0_3_317
*1258 FILLER_0_3_329
*1259 FILLER_0_3_39
*1260 FILLER_0_3_51
*1261 FILLER_0_3_55
*1262 FILLER_0_3_57
*1263 FILLER_0_3_69
*1264 FILLER_0_3_81
*1265 FILLER_0_3_93
*1266 FILLER_0_4_109
*1267 FILLER_0_4_121
*1268 FILLER_0_4_133
*1269 FILLER_0_4_139
*1270 FILLER_0_4_141
*1271 FILLER_0_4_15
*1272 FILLER_0_4_153
*1273 FILLER_0_4_165
*1274 FILLER_0_4_177
*1275 FILLER_0_4_189
*1276 FILLER_0_4_195
*1277 FILLER_0_4_197
*1278 FILLER_0_4_209
*1279 FILLER_0_4_221
*1280 FILLER_0_4_233
*1281 FILLER_0_4_245
*1282 FILLER_0_4_251
*1283 FILLER_0_4_253
*1284 FILLER_0_4_265
*1285 FILLER_0_4_27
*1286 FILLER_0_4_277
*1287 FILLER_0_4_289
*1288 FILLER_0_4_29
*1289 FILLER_0_4_3
*1290 FILLER_0_4_301
*1291 FILLER_0_4_307
*1292 FILLER_0_4_309
*1293 FILLER_0_4_321
*1294 FILLER_0_4_333
*1295 FILLER_0_4_41
*1296 FILLER_0_4_53
*1297 FILLER_0_4_65
*1298 FILLER_0_4_77
*1299 FILLER_0_4_83
*1300 FILLER_0_4_85
*1301 FILLER_0_4_97
*1302 FILLER_0_5_105
*1303 FILLER_0_5_111
*1304 FILLER_0_5_113
*1305 FILLER_0_5_125
*1306 FILLER_0_5_137
*1307 FILLER_0_5_149
*1308 FILLER_0_5_15
*1309 FILLER_0_5_161
*1310 FILLER_0_5_167
*1311 FILLER_0_5_169
*1312 FILLER_0_5_181
*1313 FILLER_0_5_193
*1314 FILLER_0_5_205
*1315 FILLER_0_5_217
*1316 FILLER_0_5_223
*1317 FILLER_0_5_225
*1318 FILLER_0_5_237
*1319 FILLER_0_5_249
*1320 FILLER_0_5_261
*1321 FILLER_0_5_27
*1322 FILLER_0_5_273
*1323 FILLER_0_5_279
*1324 FILLER_0_5_281
*1325 FILLER_0_5_293
*1326 FILLER_0_5_3
*1327 FILLER_0_5_305
*1328 FILLER_0_5_317
*1329 FILLER_0_5_329
*1330 FILLER_0_5_39
*1331 FILLER_0_5_51
*1332 FILLER_0_5_55
*1333 FILLER_0_5_57
*1334 FILLER_0_5_69
*1335 FILLER_0_5_81
*1336 FILLER_0_5_93
*1337 FILLER_0_6_109
*1338 FILLER_0_6_121
*1339 FILLER_0_6_133
*1340 FILLER_0_6_139
*1341 FILLER_0_6_141
*1342 FILLER_0_6_15
*1343 FILLER_0_6_153
*1344 FILLER_0_6_165
*1345 FILLER_0_6_177
*1346 FILLER_0_6_189
*1347 FILLER_0_6_195
*1348 FILLER_0_6_197
*1349 FILLER_0_6_209
*1350 FILLER_0_6_221
*1351 FILLER_0_6_233
*1352 FILLER_0_6_245
*1353 FILLER_0_6_251
*1354 FILLER_0_6_253
*1355 FILLER_0_6_265
*1356 FILLER_0_6_27
*1357 FILLER_0_6_277
*1358 FILLER_0_6_289
*1359 FILLER_0_6_29
*1360 FILLER_0_6_3
*1361 FILLER_0_6_301
*1362 FILLER_0_6_307
*1363 FILLER_0_6_309
*1364 FILLER_0_6_321
*1365 FILLER_0_6_333
*1366 FILLER_0_6_41
*1367 FILLER_0_6_53
*1368 FILLER_0_6_65
*1369 FILLER_0_6_77
*1370 FILLER_0_6_83
*1371 FILLER_0_6_85
*1372 FILLER_0_6_97
*1373 FILLER_0_7_105
*1374 FILLER_0_7_111
*1375 FILLER_0_7_113
*1376 FILLER_0_7_125
*1377 FILLER_0_7_137
*1378 FILLER_0_7_149
*1379 FILLER_0_7_15
*1380 FILLER_0_7_161
*1381 FILLER_0_7_167
*1382 FILLER_0_7_169
*1383 FILLER_0_7_181
*1384 FILLER_0_7_193
*1385 FILLER_0_7_205
*1386 FILLER_0_7_217
*1387 FILLER_0_7_223
*1388 FILLER_0_7_225
*1389 FILLER_0_7_237
*1390 FILLER_0_7_249
*1391 FILLER_0_7_261
*1392 FILLER_0_7_27
*1393 FILLER_0_7_273
*1394 FILLER_0_7_279
*1395 FILLER_0_7_281
*1396 FILLER_0_7_293
*1397 FILLER_0_7_3
*1398 FILLER_0_7_305
*1399 FILLER_0_7_317
*1400 FILLER_0_7_329
*1401 FILLER_0_7_39
*1402 FILLER_0_7_51
*1403 FILLER_0_7_55
*1404 FILLER_0_7_57
*1405 FILLER_0_7_69
*1406 FILLER_0_7_81
*1407 FILLER_0_7_93
*1408 FILLER_0_8_109
*1409 FILLER_0_8_121
*1410 FILLER_0_8_133
*1411 FILLER_0_8_139
*1412 FILLER_0_8_141
*1413 FILLER_0_8_15
*1414 FILLER_0_8_153
*1415 FILLER_0_8_165
*1416 FILLER_0_8_177
*1417 FILLER_0_8_189
*1418 FILLER_0_8_195
*1419 FILLER_0_8_197
*1420 FILLER_0_8_209
*1421 FILLER_0_8_221
*1422 FILLER_0_8_233
*1423 FILLER_0_8_245
*1424 FILLER_0_8_251
*1425 FILLER_0_8_253
*1426 FILLER_0_8_265
*1427 FILLER_0_8_27
*1428 FILLER_0_8_277
*1429 FILLER_0_8_289
*1430 FILLER_0_8_29
*1431 FILLER_0_8_3
*1432 FILLER_0_8_301
*1433 FILLER_0_8_307
*1434 FILLER_0_8_309
*1435 FILLER_0_8_321
*1436 FILLER_0_8_333
*1437 FILLER_0_8_41
*1438 FILLER_0_8_53
*1439 FILLER_0_8_65
*1440 FILLER_0_8_77
*1441 FILLER_0_8_83
*1442 FILLER_0_8_85
*1443 FILLER_0_8_97
*1444 FILLER_0_9_105
*1445 FILLER_0_9_111
*1446 FILLER_0_9_113
*1447 FILLER_0_9_125
*1448 FILLER_0_9_137
*1449 FILLER_0_9_149
*1450 FILLER_0_9_15
*1451 FILLER_0_9_161
*1452 FILLER_0_9_167
*1453 FILLER_0_9_169
*1454 FILLER_0_9_181
*1455 FILLER_0_9_193
*1456 FILLER_0_9_205
*1457 FILLER_0_9_217
*1458 FILLER_0_9_223
*1459 FILLER_0_9_225
*1460 FILLER_0_9_237
*1461 FILLER_0_9_249
*1462 FILLER_0_9_261
*1463 FILLER_0_9_27
*1464 FILLER_0_9_273
*1465 FILLER_0_9_279
*1466 FILLER_0_9_281
*1467 FILLER_0_9_293
*1468 FILLER_0_9_3
*1469 FILLER_0_9_305
*1470 FILLER_0_9_317
*1471 FILLER_0_9_329
*1472 FILLER_0_9_39