*SPEF "ieee 1481-1999"
*DESIGN "tt_um_wokwi_395055359324730369"
*DATE "14:11:38 Saturday April 13, 2024"
*VENDOR "The OpenROAD Project"
*PROGRAM "OpenROAD"
*VERSION "0889970d1790a2617e69f253221b8bd7626e51dc"
*DESIGN_FLOW "NAME_SCOPE LOCAL" "PIN_CAP NONE"
*DIVIDER /
*DELIMITER :
*BUS_DELIMITER []
*T_UNIT 1 NS
*C_UNIT 1 PF
*R_UNIT 1 OHM
*L_UNIT 1 HENRY

*NAME_MAP
*3 clk
*4 ena
*5 rst_n
*6 ui_in[0]
*7 ui_in[1]
*8 ui_in[2]
*9 ui_in[3]
*10 ui_in[4]
*11 ui_in[5]
*12 ui_in[6]
*13 ui_in[7]
*14 uio_in[0]
*15 uio_in[1]
*16 uio_in[2]
*17 uio_in[3]
*18 uio_in[4]
*19 uio_in[5]
*20 uio_in[6]
*21 uio_in[7]
*22 net1
*23 net2
*24 net3
*25 net4
*26 net5
*27 net6
*28 net7
*29 net8
*30 net9
*31 net10
*32 net11
*33 net12
*34 net13
*35 net14
*36 net15
*37 net16
*38 net17
*39 net18
*40 net19
*41 net20
*42 net21
*43 net22
*44 net23
*45 uo_out[7]
*46 flop1\.d
*47 flop1\.q
*48 flop10\.clk
*49 flop10\.d
*50 flop10\.q
*51 flop11\.d
*52 flop11\.q
*53 flop12\.d
*54 flop12\.q
*55 flop13\.d
*56 flop13\.q
*57 flop2\.d
*58 flop2\.q
*59 flop3\.d
*60 flop3\.q
*61 flop4\.d
*62 flop4\.q
*63 flop5\.d
*64 flop5\.q
*65 flop6\.d
*66 flop6\.q
*67 flop7\.d
*68 flop7\.q
*69 flop8\.d
*70 flop8\.q
*71 flop9\.d
*72 net24
*73 FILLER_0_0_109
*74 FILLER_0_0_113
*75 FILLER_0_0_125
*76 FILLER_0_0_137
*77 FILLER_0_0_141
*78 FILLER_0_0_15
*79 FILLER_0_0_153
*80 FILLER_0_0_165
*81 FILLER_0_0_169
*82 FILLER_0_0_181
*83 FILLER_0_0_193
*84 FILLER_0_0_197
*85 FILLER_0_0_209
*86 FILLER_0_0_221
*87 FILLER_0_0_225
*88 FILLER_0_0_237
*89 FILLER_0_0_249
*90 FILLER_0_0_253
*91 FILLER_0_0_265
*92 FILLER_0_0_27
*93 FILLER_0_0_277
*94 FILLER_0_0_281
*95 FILLER_0_0_29
*96 FILLER_0_0_293
*97 FILLER_0_0_3
*98 FILLER_0_0_305
*99 FILLER_0_0_309
*100 FILLER_0_0_321
*101 FILLER_0_0_333
*102 FILLER_0_0_41
*103 FILLER_0_0_53
*104 FILLER_0_0_57
*105 FILLER_0_0_69
*106 FILLER_0_0_81
*107 FILLER_0_0_85
*108 FILLER_0_0_97
*109 FILLER_0_10_109
*110 FILLER_0_10_121
*111 FILLER_0_10_133
*112 FILLER_0_10_139
*113 FILLER_0_10_141
*114 FILLER_0_10_15
*115 FILLER_0_10_153
*116 FILLER_0_10_165
*117 FILLER_0_10_177
*118 FILLER_0_10_189
*119 FILLER_0_10_195
*120 FILLER_0_10_197
*121 FILLER_0_10_209
*122 FILLER_0_10_221
*123 FILLER_0_10_233
*124 FILLER_0_10_245
*125 FILLER_0_10_251
*126 FILLER_0_10_253
*127 FILLER_0_10_265
*128 FILLER_0_10_27
*129 FILLER_0_10_277
*130 FILLER_0_10_289
*131 FILLER_0_10_29
*132 FILLER_0_10_3
*133 FILLER_0_10_301
*134 FILLER_0_10_307
*135 FILLER_0_10_309
*136 FILLER_0_10_321
*137 FILLER_0_10_333
*138 FILLER_0_10_41
*139 FILLER_0_10_53
*140 FILLER_0_10_65
*141 FILLER_0_10_77
*142 FILLER_0_10_83
*143 FILLER_0_10_85
*144 FILLER_0_10_97
*145 FILLER_0_11_105
*146 FILLER_0_11_111
*147 FILLER_0_11_113
*148 FILLER_0_11_125
*149 FILLER_0_11_137
*150 FILLER_0_11_149
*151 FILLER_0_11_15
*152 FILLER_0_11_161
*153 FILLER_0_11_167
*154 FILLER_0_11_169
*155 FILLER_0_11_181
*156 FILLER_0_11_193
*157 FILLER_0_11_205
*158 FILLER_0_11_217
*159 FILLER_0_11_223
*160 FILLER_0_11_225
*161 FILLER_0_11_237
*162 FILLER_0_11_249
*163 FILLER_0_11_261
*164 FILLER_0_11_27
*165 FILLER_0_11_273
*166 FILLER_0_11_279
*167 FILLER_0_11_281
*168 FILLER_0_11_293
*169 FILLER_0_11_3
*170 FILLER_0_11_305
*171 FILLER_0_11_317
*172 FILLER_0_11_329
*173 FILLER_0_11_39
*174 FILLER_0_11_51
*175 FILLER_0_11_55
*176 FILLER_0_11_57
*177 FILLER_0_11_69
*178 FILLER_0_11_81
*179 FILLER_0_11_93
*180 FILLER_0_12_109
*181 FILLER_0_12_121
*182 FILLER_0_12_133
*183 FILLER_0_12_139
*184 FILLER_0_12_141
*185 FILLER_0_12_15
*186 FILLER_0_12_153
*187 FILLER_0_12_165
*188 FILLER_0_12_177
*189 FILLER_0_12_189
*190 FILLER_0_12_195
*191 FILLER_0_12_197
*192 FILLER_0_12_209
*193 FILLER_0_12_221
*194 FILLER_0_12_233
*195 FILLER_0_12_245
*196 FILLER_0_12_251
*197 FILLER_0_12_253
*198 FILLER_0_12_265
*199 FILLER_0_12_27
*200 FILLER_0_12_277
*201 FILLER_0_12_289
*202 FILLER_0_12_29
*203 FILLER_0_12_3
*204 FILLER_0_12_301
*205 FILLER_0_12_307
*206 FILLER_0_12_309
*207 FILLER_0_12_321
*208 FILLER_0_12_333
*209 FILLER_0_12_41
*210 FILLER_0_12_53
*211 FILLER_0_12_65
*212 FILLER_0_12_77
*213 FILLER_0_12_83
*214 FILLER_0_12_85
*215 FILLER_0_12_97
*216 FILLER_0_13_105
*217 FILLER_0_13_111
*218 FILLER_0_13_113
*219 FILLER_0_13_125
*220 FILLER_0_13_137
*221 FILLER_0_13_149
*222 FILLER_0_13_15
*223 FILLER_0_13_161
*224 FILLER_0_13_167
*225 FILLER_0_13_169
*226 FILLER_0_13_181
*227 FILLER_0_13_193
*228 FILLER_0_13_205
*229 FILLER_0_13_217
*230 FILLER_0_13_223
*231 FILLER_0_13_225
*232 FILLER_0_13_237
*233 FILLER_0_13_249
*234 FILLER_0_13_261
*235 FILLER_0_13_27
*236 FILLER_0_13_273
*237 FILLER_0_13_279
*238 FILLER_0_13_281
*239 FILLER_0_13_293
*240 FILLER_0_13_3
*241 FILLER_0_13_305
*242 FILLER_0_13_317
*243 FILLER_0_13_329
*244 FILLER_0_13_39
*245 FILLER_0_13_51
*246 FILLER_0_13_55
*247 FILLER_0_13_57
*248 FILLER_0_13_69
*249 FILLER_0_13_81
*250 FILLER_0_13_93
*251 FILLER_0_14_109
*252 FILLER_0_14_121
*253 FILLER_0_14_133
*254 FILLER_0_14_139
*255 FILLER_0_14_141
*256 FILLER_0_14_15
*257 FILLER_0_14_153
*258 FILLER_0_14_165
*259 FILLER_0_14_177
*260 FILLER_0_14_189
*261 FILLER_0_14_195
*262 FILLER_0_14_197
*263 FILLER_0_14_209
*264 FILLER_0_14_221
*265 FILLER_0_14_233
*266 FILLER_0_14_245
*267 FILLER_0_14_251
*268 FILLER_0_14_253
*269 FILLER_0_14_265
*270 FILLER_0_14_27
*271 FILLER_0_14_277
*272 FILLER_0_14_289
*273 FILLER_0_14_29
*274 FILLER_0_14_3
*275 FILLER_0_14_301
*276 FILLER_0_14_307
*277 FILLER_0_14_309
*278 FILLER_0_14_321
*279 FILLER_0_14_333
*280 FILLER_0_14_41
*281 FILLER_0_14_53
*282 FILLER_0_14_65
*283 FILLER_0_14_77
*284 FILLER_0_14_83
*285 FILLER_0_14_85
*286 FILLER_0_14_97
*287 FILLER_0_15_105
*288 FILLER_0_15_111
*289 FILLER_0_15_113
*290 FILLER_0_15_125
*291 FILLER_0_15_137
*292 FILLER_0_15_149
*293 FILLER_0_15_15
*294 FILLER_0_15_161
*295 FILLER_0_15_167
*296 FILLER_0_15_169
*297 FILLER_0_15_181
*298 FILLER_0_15_193
*299 FILLER_0_15_205
*300 FILLER_0_15_217
*301 FILLER_0_15_223
*302 FILLER_0_15_225
*303 FILLER_0_15_237
*304 FILLER_0_15_249
*305 FILLER_0_15_261
*306 FILLER_0_15_27
*307 FILLER_0_15_273
*308 FILLER_0_15_279
*309 FILLER_0_15_281
*310 FILLER_0_15_293
*311 FILLER_0_15_3
*312 FILLER_0_15_305
*313 FILLER_0_15_317
*314 FILLER_0_15_329
*315 FILLER_0_15_39
*316 FILLER_0_15_51
*317 FILLER_0_15_55
*318 FILLER_0_15_57
*319 FILLER_0_15_69
*320 FILLER_0_15_81
*321 FILLER_0_15_93
*322 FILLER_0_16_109
*323 FILLER_0_16_121
*324 FILLER_0_16_133
*325 FILLER_0_16_139
*326 FILLER_0_16_141
*327 FILLER_0_16_15
*328 FILLER_0_16_153
*329 FILLER_0_16_165
*330 FILLER_0_16_177
*331 FILLER_0_16_189
*332 FILLER_0_16_195
*333 FILLER_0_16_197
*334 FILLER_0_16_209
*335 FILLER_0_16_221
*336 FILLER_0_16_233
*337 FILLER_0_16_245
*338 FILLER_0_16_251
*339 FILLER_0_16_253
*340 FILLER_0_16_265
*341 FILLER_0_16_27
*342 FILLER_0_16_277
*343 FILLER_0_16_289
*344 FILLER_0_16_29
*345 FILLER_0_16_3
*346 FILLER_0_16_301
*347 FILLER_0_16_307
*348 FILLER_0_16_309
*349 FILLER_0_16_321
*350 FILLER_0_16_333
*351 FILLER_0_16_41
*352 FILLER_0_16_53
*353 FILLER_0_16_65
*354 FILLER_0_16_77
*355 FILLER_0_16_83
*356 FILLER_0_16_85
*357 FILLER_0_16_97
*358 FILLER_0_17_105
*359 FILLER_0_17_111
*360 FILLER_0_17_113
*361 FILLER_0_17_125
*362 FILLER_0_17_137
*363 FILLER_0_17_149
*364 FILLER_0_17_15
*365 FILLER_0_17_161
*366 FILLER_0_17_167
*367 FILLER_0_17_169
*368 FILLER_0_17_181
*369 FILLER_0_17_193
*370 FILLER_0_17_205
*371 FILLER_0_17_217
*372 FILLER_0_17_223
*373 FILLER_0_17_225
*374 FILLER_0_17_237
*375 FILLER_0_17_249
*376 FILLER_0_17_261
*377 FILLER_0_17_27
*378 FILLER_0_17_273
*379 FILLER_0_17_279
*380 FILLER_0_17_281
*381 FILLER_0_17_293
*382 FILLER_0_17_3
*383 FILLER_0_17_305
*384 FILLER_0_17_317
*385 FILLER_0_17_329
*386 FILLER_0_17_39
*387 FILLER_0_17_51
*388 FILLER_0_17_55
*389 FILLER_0_17_57
*390 FILLER_0_17_69
*391 FILLER_0_17_81
*392 FILLER_0_17_93
*393 FILLER_0_18_109
*394 FILLER_0_18_121
*395 FILLER_0_18_133
*396 FILLER_0_18_139
*397 FILLER_0_18_141
*398 FILLER_0_18_15
*399 FILLER_0_18_153
*400 FILLER_0_18_165
*401 FILLER_0_18_177
*402 FILLER_0_18_189
*403 FILLER_0_18_195
*404 FILLER_0_18_197
*405 FILLER_0_18_209
*406 FILLER_0_18_221
*407 FILLER_0_18_233
*408 FILLER_0_18_245
*409 FILLER_0_18_251
*410 FILLER_0_18_253
*411 FILLER_0_18_265
*412 FILLER_0_18_27
*413 FILLER_0_18_277
*414 FILLER_0_18_289
*415 FILLER_0_18_29
*416 FILLER_0_18_3
*417 FILLER_0_18_301
*418 FILLER_0_18_307
*419 FILLER_0_18_309
*420 FILLER_0_18_321
*421 FILLER_0_18_333
*422 FILLER_0_18_41
*423 FILLER_0_18_53
*424 FILLER_0_18_65
*425 FILLER_0_18_77
*426 FILLER_0_18_83
*427 FILLER_0_18_85
*428 FILLER_0_18_97
*429 FILLER_0_19_105
*430 FILLER_0_19_111
*431 FILLER_0_19_113
*432 FILLER_0_19_125
*433 FILLER_0_19_137
*434 FILLER_0_19_149
*435 FILLER_0_19_15
*436 FILLER_0_19_161
*437 FILLER_0_19_167
*438 FILLER_0_19_169
*439 FILLER_0_19_181
*440 FILLER_0_19_193
*441 FILLER_0_19_205
*442 FILLER_0_19_217
*443 FILLER_0_19_223
*444 FILLER_0_19_225
*445 FILLER_0_19_237
*446 FILLER_0_19_249
*447 FILLER_0_19_261
*448 FILLER_0_19_27
*449 FILLER_0_19_273
*450 FILLER_0_19_279
*451 FILLER_0_19_281
*452 FILLER_0_19_293
*453 FILLER_0_19_3
*454 FILLER_0_19_305
*455 FILLER_0_19_317
*456 FILLER_0_19_329
*457 FILLER_0_19_39
*458 FILLER_0_19_51
*459 FILLER_0_19_55
*460 FILLER_0_19_57
*461 FILLER_0_19_69
*462 FILLER_0_19_81
*463 FILLER_0_19_93
*464 FILLER_0_1_105
*465 FILLER_0_1_111
*466 FILLER_0_1_113
*467 FILLER_0_1_125
*468 FILLER_0_1_137
*469 FILLER_0_1_149
*470 FILLER_0_1_15
*471 FILLER_0_1_161
*472 FILLER_0_1_167
*473 FILLER_0_1_169
*474 FILLER_0_1_181
*475 FILLER_0_1_193
*476 FILLER_0_1_205
*477 FILLER_0_1_217
*478 FILLER_0_1_223
*479 FILLER_0_1_225
*480 FILLER_0_1_237
*481 FILLER_0_1_249
*482 FILLER_0_1_261
*483 FILLER_0_1_27
*484 FILLER_0_1_273
*485 FILLER_0_1_279
*486 FILLER_0_1_281
*487 FILLER_0_1_293
*488 FILLER_0_1_3
*489 FILLER_0_1_305
*490 FILLER_0_1_317
*491 FILLER_0_1_329
*492 FILLER_0_1_39
*493 FILLER_0_1_51
*494 FILLER_0_1_55
*495 FILLER_0_1_57
*496 FILLER_0_1_69
*497 FILLER_0_1_81
*498 FILLER_0_1_93
*499 FILLER_0_20_109
*500 FILLER_0_20_121
*501 FILLER_0_20_133
*502 FILLER_0_20_139
*503 FILLER_0_20_141
*504 FILLER_0_20_15
*505 FILLER_0_20_153
*506 FILLER_0_20_165
*507 FILLER_0_20_177
*508 FILLER_0_20_189
*509 FILLER_0_20_195
*510 FILLER_0_20_197
*511 FILLER_0_20_209
*512 FILLER_0_20_221
*513 FILLER_0_20_233
*514 FILLER_0_20_245
*515 FILLER_0_20_251
*516 FILLER_0_20_253
*517 FILLER_0_20_265
*518 FILLER_0_20_27
*519 FILLER_0_20_277
*520 FILLER_0_20_289
*521 FILLER_0_20_29
*522 FILLER_0_20_3
*523 FILLER_0_20_301
*524 FILLER_0_20_307
*525 FILLER_0_20_309
*526 FILLER_0_20_321
*527 FILLER_0_20_333
*528 FILLER_0_20_41
*529 FILLER_0_20_53
*530 FILLER_0_20_65
*531 FILLER_0_20_77
*532 FILLER_0_20_83
*533 FILLER_0_20_85
*534 FILLER_0_20_97
*535 FILLER_0_21_105
*536 FILLER_0_21_111
*537 FILLER_0_21_113
*538 FILLER_0_21_125
*539 FILLER_0_21_137
*540 FILLER_0_21_149
*541 FILLER_0_21_15
*542 FILLER_0_21_161
*543 FILLER_0_21_167
*544 FILLER_0_21_169
*545 FILLER_0_21_181
*546 FILLER_0_21_193
*547 FILLER_0_21_205
*548 FILLER_0_21_217
*549 FILLER_0_21_223
*550 FILLER_0_21_225
*551 FILLER_0_21_237
*552 FILLER_0_21_249
*553 FILLER_0_21_261
*554 FILLER_0_21_27
*555 FILLER_0_21_273
*556 FILLER_0_21_279
*557 FILLER_0_21_281
*558 FILLER_0_21_293
*559 FILLER_0_21_3
*560 FILLER_0_21_305
*561 FILLER_0_21_317
*562 FILLER_0_21_329
*563 FILLER_0_21_39
*564 FILLER_0_21_51
*565 FILLER_0_21_55
*566 FILLER_0_21_57
*567 FILLER_0_21_69
*568 FILLER_0_21_81
*569 FILLER_0_21_93
*570 FILLER_0_22_109
*571 FILLER_0_22_121
*572 FILLER_0_22_133
*573 FILLER_0_22_139
*574 FILLER_0_22_141
*575 FILLER_0_22_15
*576 FILLER_0_22_153
*577 FILLER_0_22_165
*578 FILLER_0_22_177
*579 FILLER_0_22_189
*580 FILLER_0_22_195
*581 FILLER_0_22_197
*582 FILLER_0_22_209
*583 FILLER_0_22_221
*584 FILLER_0_22_233
*585 FILLER_0_22_245
*586 FILLER_0_22_251
*587 FILLER_0_22_253
*588 FILLER_0_22_265
*589 FILLER_0_22_27
*590 FILLER_0_22_277
*591 FILLER_0_22_289
*592 FILLER_0_22_29
*593 FILLER_0_22_3
*594 FILLER_0_22_301
*595 FILLER_0_22_307
*596 FILLER_0_22_309
*597 FILLER_0_22_321
*598 FILLER_0_22_333
*599 FILLER_0_22_41
*600 FILLER_0_22_53
*601 FILLER_0_22_65
*602 FILLER_0_22_77
*603 FILLER_0_22_83
*604 FILLER_0_22_85
*605 FILLER_0_22_97
*606 FILLER_0_23_105
*607 FILLER_0_23_111
*608 FILLER_0_23_113
*609 FILLER_0_23_125
*610 FILLER_0_23_137
*611 FILLER_0_23_149
*612 FILLER_0_23_15
*613 FILLER_0_23_161
*614 FILLER_0_23_167
*615 FILLER_0_23_169
*616 FILLER_0_23_181
*617 FILLER_0_23_193
*618 FILLER_0_23_205
*619 FILLER_0_23_217
*620 FILLER_0_23_223
*621 FILLER_0_23_225
*622 FILLER_0_23_237
*623 FILLER_0_23_249
*624 FILLER_0_23_261
*625 FILLER_0_23_27
*626 FILLER_0_23_273
*627 FILLER_0_23_279
*628 FILLER_0_23_281
*629 FILLER_0_23_293
*630 FILLER_0_23_3
*631 FILLER_0_23_305
*632 FILLER_0_23_317
*633 FILLER_0_23_329
*634 FILLER_0_23_39
*635 FILLER_0_23_51
*636 FILLER_0_23_55
*637 FILLER_0_23_57
*638 FILLER_0_23_69
*639 FILLER_0_23_81
*640 FILLER_0_23_93
*641 FILLER_0_24_109
*642 FILLER_0_24_121
*643 FILLER_0_24_133
*644 FILLER_0_24_139
*645 FILLER_0_24_141
*646 FILLER_0_24_15
*647 FILLER_0_24_153
*648 FILLER_0_24_165
*649 FILLER_0_24_177
*650 FILLER_0_24_189
*651 FILLER_0_24_195
*652 FILLER_0_24_197
*653 FILLER_0_24_209
*654 FILLER_0_24_221
*655 FILLER_0_24_233
*656 FILLER_0_24_245
*657 FILLER_0_24_251
*658 FILLER_0_24_253
*659 FILLER_0_24_265
*660 FILLER_0_24_27
*661 FILLER_0_24_277
*662 FILLER_0_24_289
*663 FILLER_0_24_29
*664 FILLER_0_24_3
*665 FILLER_0_24_301
*666 FILLER_0_24_307
*667 FILLER_0_24_309
*668 FILLER_0_24_321
*669 FILLER_0_24_333
*670 FILLER_0_24_41
*671 FILLER_0_24_53
*672 FILLER_0_24_65
*673 FILLER_0_24_77
*674 FILLER_0_24_83
*675 FILLER_0_24_85
*676 FILLER_0_24_97
*677 FILLER_0_25_105
*678 FILLER_0_25_111
*679 FILLER_0_25_113
*680 FILLER_0_25_125
*681 FILLER_0_25_137
*682 FILLER_0_25_149
*683 FILLER_0_25_15
*684 FILLER_0_25_161
*685 FILLER_0_25_167
*686 FILLER_0_25_169
*687 FILLER_0_25_181
*688 FILLER_0_25_193
*689 FILLER_0_25_205
*690 FILLER_0_25_217
*691 FILLER_0_25_223
*692 FILLER_0_25_225
*693 FILLER_0_25_237
*694 FILLER_0_25_249
*695 FILLER_0_25_261
*696 FILLER_0_25_27
*697 FILLER_0_25_273
*698 FILLER_0_25_279
*699 FILLER_0_25_281
*700 FILLER_0_25_293
*701 FILLER_0_25_3
*702 FILLER_0_25_305
*703 FILLER_0_25_317
*704 FILLER_0_25_329
*705 FILLER_0_25_39
*706 FILLER_0_25_51
*707 FILLER_0_25_55
*708 FILLER_0_25_57
*709 FILLER_0_25_69
*710 FILLER_0_25_81
*711 FILLER_0_25_93
*712 FILLER_0_26_109
*713 FILLER_0_26_121
*714 FILLER_0_26_133
*715 FILLER_0_26_139
*716 FILLER_0_26_141
*717 FILLER_0_26_15
*718 FILLER_0_26_153
*719 FILLER_0_26_165
*720 FILLER_0_26_177
*721 FILLER_0_26_189
*722 FILLER_0_26_195
*723 FILLER_0_26_197
*724 FILLER_0_26_209
*725 FILLER_0_26_221
*726 FILLER_0_26_233
*727 FILLER_0_26_245
*728 FILLER_0_26_251
*729 FILLER_0_26_253
*730 FILLER_0_26_265
*731 FILLER_0_26_27
*732 FILLER_0_26_277
*733 FILLER_0_26_289
*734 FILLER_0_26_29
*735 FILLER_0_26_3
*736 FILLER_0_26_301
*737 FILLER_0_26_307
*738 FILLER_0_26_309
*739 FILLER_0_26_321
*740 FILLER_0_26_333
*741 FILLER_0_26_41
*742 FILLER_0_26_53
*743 FILLER_0_26_65
*744 FILLER_0_26_77
*745 FILLER_0_26_83
*746 FILLER_0_26_85
*747 FILLER_0_26_97
*748 FILLER_0_27_105
*749 FILLER_0_27_111
*750 FILLER_0_27_113
*751 FILLER_0_27_125
*752 FILLER_0_27_137
*753 FILLER_0_27_149
*754 FILLER_0_27_15
*755 FILLER_0_27_161
*756 FILLER_0_27_167
*757 FILLER_0_27_169
*758 FILLER_0_27_181
*759 FILLER_0_27_193
*760 FILLER_0_27_205
*761 FILLER_0_27_217
*762 FILLER_0_27_223
*763 FILLER_0_27_225
*764 FILLER_0_27_237
*765 FILLER_0_27_249
*766 FILLER_0_27_261
*767 FILLER_0_27_27
*768 FILLER_0_27_273
*769 FILLER_0_27_279
*770 FILLER_0_27_281
*771 FILLER_0_27_293
*772 FILLER_0_27_3
*773 FILLER_0_27_305
*774 FILLER_0_27_317
*775 FILLER_0_27_329
*776 FILLER_0_27_39
*777 FILLER_0_27_51
*778 FILLER_0_27_55
*779 FILLER_0_27_57
*780 FILLER_0_27_69
*781 FILLER_0_27_81
*782 FILLER_0_27_93
*783 FILLER_0_28_109
*784 FILLER_0_28_121
*785 FILLER_0_28_133
*786 FILLER_0_28_139
*787 FILLER_0_28_141
*788 FILLER_0_28_15
*789 FILLER_0_28_153
*790 FILLER_0_28_165
*791 FILLER_0_28_177
*792 FILLER_0_28_189
*793 FILLER_0_28_195
*794 FILLER_0_28_197
*795 FILLER_0_28_209
*796 FILLER_0_28_221
*797 FILLER_0_28_233
*798 FILLER_0_28_245
*799 FILLER_0_28_251
*800 FILLER_0_28_253
*801 FILLER_0_28_265
*802 FILLER_0_28_27
*803 FILLER_0_28_277
*804 FILLER_0_28_289
*805 FILLER_0_28_29
*806 FILLER_0_28_3
*807 FILLER_0_28_301
*808 FILLER_0_28_307
*809 FILLER_0_28_309
*810 FILLER_0_28_321
*811 FILLER_0_28_333
*812 FILLER_0_28_41
*813 FILLER_0_28_53
*814 FILLER_0_28_65
*815 FILLER_0_28_77
*816 FILLER_0_28_83
*817 FILLER_0_28_85
*818 FILLER_0_28_97
*819 FILLER_0_29_105
*820 FILLER_0_29_111
*821 FILLER_0_29_113
*822 FILLER_0_29_125
*823 FILLER_0_29_137
*824 FILLER_0_29_149
*825 FILLER_0_29_15
*826 FILLER_0_29_161
*827 FILLER_0_29_167
*828 FILLER_0_29_169
*829 FILLER_0_29_181
*830 FILLER_0_29_193
*831 FILLER_0_29_205
*832 FILLER_0_29_217
*833 FILLER_0_29_223
*834 FILLER_0_29_225
*835 FILLER_0_29_237
*836 FILLER_0_29_249
*837 FILLER_0_29_261
*838 FILLER_0_29_27
*839 FILLER_0_29_273
*840 FILLER_0_29_279
*841 FILLER_0_29_281
*842 FILLER_0_29_293
*843 FILLER_0_29_3
*844 FILLER_0_29_305
*845 FILLER_0_29_317
*846 FILLER_0_29_329
*847 FILLER_0_29_39
*848 FILLER_0_29_51
*849 FILLER_0_29_55
*850 FILLER_0_29_57
*851 FILLER_0_29_69
*852 FILLER_0_29_81
*853 FILLER_0_29_93
*854 FILLER_0_2_109
*855 FILLER_0_2_121
*856 FILLER_0_2_133
*857 FILLER_0_2_139
*858 FILLER_0_2_141
*859 FILLER_0_2_15
*860 FILLER_0_2_153
*861 FILLER_0_2_165
*862 FILLER_0_2_177
*863 FILLER_0_2_189
*864 FILLER_0_2_195
*865 FILLER_0_2_197
*866 FILLER_0_2_209
*867 FILLER_0_2_221
*868 FILLER_0_2_233
*869 FILLER_0_2_245
*870 FILLER_0_2_251
*871 FILLER_0_2_253
*872 FILLER_0_2_265
*873 FILLER_0_2_27
*874 FILLER_0_2_277
*875 FILLER_0_2_289
*876 FILLER_0_2_29
*877 FILLER_0_2_3
*878 FILLER_0_2_301
*879 FILLER_0_2_307
*880 FILLER_0_2_309
*881 FILLER_0_2_321
*882 FILLER_0_2_333
*883 FILLER_0_2_41
*884 FILLER_0_2_53
*885 FILLER_0_2_65
*886 FILLER_0_2_77
*887 FILLER_0_2_83
*888 FILLER_0_2_85
*889 FILLER_0_2_97
*890 FILLER_0_30_109
*891 FILLER_0_30_121
*892 FILLER_0_30_133
*893 FILLER_0_30_139
*894 FILLER_0_30_141
*895 FILLER_0_30_15
*896 FILLER_0_30_153
*897 FILLER_0_30_165
*898 FILLER_0_30_177
*899 FILLER_0_30_189
*900 FILLER_0_30_195
*901 FILLER_0_30_197
*902 FILLER_0_30_209
*903 FILLER_0_30_221
*904 FILLER_0_30_233
*905 FILLER_0_30_245
*906 FILLER_0_30_251
*907 FILLER_0_30_253
*908 FILLER_0_30_265
*909 FILLER_0_30_27
*910 FILLER_0_30_277
*911 FILLER_0_30_289
*912 FILLER_0_30_29
*913 FILLER_0_30_3
*914 FILLER_0_30_301
*915 FILLER_0_30_307
*916 FILLER_0_30_309
*917 FILLER_0_30_321
*918 FILLER_0_30_333
*919 FILLER_0_30_41
*920 FILLER_0_30_53
*921 FILLER_0_30_65
*922 FILLER_0_30_77
*923 FILLER_0_30_83
*924 FILLER_0_30_85
*925 FILLER_0_30_97
*926 FILLER_0_31_105
*927 FILLER_0_31_111
*928 FILLER_0_31_113
*929 FILLER_0_31_125
*930 FILLER_0_31_137
*931 FILLER_0_31_149
*932 FILLER_0_31_15
*933 FILLER_0_31_161
*934 FILLER_0_31_167
*935 FILLER_0_31_169
*936 FILLER_0_31_181
*937 FILLER_0_31_193
*938 FILLER_0_31_205
*939 FILLER_0_31_217
*940 FILLER_0_31_223
*941 FILLER_0_31_225
*942 FILLER_0_31_237
*943 FILLER_0_31_249
*944 FILLER_0_31_261
*945 FILLER_0_31_27
*946 FILLER_0_31_273
*947 FILLER_0_31_279
*948 FILLER_0_31_281
*949 FILLER_0_31_293
*950 FILLER_0_31_3
*951 FILLER_0_31_305
*952 FILLER_0_31_317
*953 FILLER_0_31_329
*954 FILLER_0_31_39
*955 FILLER_0_31_51
*956 FILLER_0_31_55
*957 FILLER_0_31_57
*958 FILLER_0_31_69
*959 FILLER_0_31_81
*960 FILLER_0_31_93
*961 FILLER_0_32_109
*962 FILLER_0_32_121
*963 FILLER_0_32_133
*964 FILLER_0_32_139
*965 FILLER_0_32_141
*966 FILLER_0_32_15
*967 FILLER_0_32_153
*968 FILLER_0_32_165
*969 FILLER_0_32_177
*970 FILLER_0_32_189
*971 FILLER_0_32_195
*972 FILLER_0_32_197
*973 FILLER_0_32_209
*974 FILLER_0_32_221
*975 FILLER_0_32_233
*976 FILLER_0_32_245
*977 FILLER_0_32_251
*978 FILLER_0_32_253
*979 FILLER_0_32_265
*980 FILLER_0_32_27
*981 FILLER_0_32_277
*982 FILLER_0_32_289
*983 FILLER_0_32_29
*984 FILLER_0_32_3
*985 FILLER_0_32_301
*986 FILLER_0_32_307
*987 FILLER_0_32_309
*988 FILLER_0_32_321
*989 FILLER_0_32_333
*990 FILLER_0_32_41
*991 FILLER_0_32_53
*992 FILLER_0_32_65
*993 FILLER_0_32_77
*994 FILLER_0_32_83
*995 FILLER_0_32_85
*996 FILLER_0_32_97
*997 FILLER_0_33_105
*998 FILLER_0_33_111
*999 FILLER_0_33_113
*1000 FILLER_0_33_125
*1001 FILLER_0_33_137
*1002 FILLER_0_33_149
*1003 FILLER_0_33_15
*1004 FILLER_0_33_161
*1005 FILLER_0_33_167
*1006 FILLER_0_33_169
*1007 FILLER_0_33_181
*1008 FILLER_0_33_193
*1009 FILLER_0_33_205
*1010 FILLER_0_33_217
*1011 FILLER_0_33_223
*1012 FILLER_0_33_225
*1013 FILLER_0_33_237
*1014 FILLER_0_33_249
*1015 FILLER_0_33_261
*1016 FILLER_0_33_27
*1017 FILLER_0_33_273
*1018 FILLER_0_33_279
*1019 FILLER_0_33_281
*1020 FILLER_0_33_293
*1021 FILLER_0_33_3
*1022 FILLER_0_33_305
*1023 FILLER_0_33_317
*1024 FILLER_0_33_329
*1025 FILLER_0_33_39
*1026 FILLER_0_33_51
*1027 FILLER_0_33_55
*1028 FILLER_0_33_57
*1029 FILLER_0_33_69
*1030 FILLER_0_33_81
*1031 FILLER_0_33_93
*1032 FILLER_0_34_109
*1033 FILLER_0_34_121
*1034 FILLER_0_34_133
*1035 FILLER_0_34_139
*1036 FILLER_0_34_141
*1037 FILLER_0_34_15
*1038 FILLER_0_34_153
*1039 FILLER_0_34_165
*1040 FILLER_0_34_177
*1041 FILLER_0_34_189
*1042 FILLER_0_34_195
*1043 FILLER_0_34_197
*1044 FILLER_0_34_209
*1045 FILLER_0_34_221
*1046 FILLER_0_34_233
*1047 FILLER_0_34_245
*1048 FILLER_0_34_251
*1049 FILLER_0_34_253
*1050 FILLER_0_34_265
*1051 FILLER_0_34_27
*1052 FILLER_0_34_277
*1053 FILLER_0_34_289
*1054 FILLER_0_34_29
*1055 FILLER_0_34_3
*1056 FILLER_0_34_301
*1057 FILLER_0_34_307
*1058 FILLER_0_34_309
*1059 FILLER_0_34_321
*1060 FILLER_0_34_333
*1061 FILLER_0_34_41
*1062 FILLER_0_34_53
*1063 FILLER_0_34_65
*1064 FILLER_0_34_77
*1065 FILLER_0_34_83
*1066 FILLER_0_34_85
*1067 FILLER_0_34_97
*1068 FILLER_0_35_105
*1069 FILLER_0_35_111
*1070 FILLER_0_35_113
*1071 FILLER_0_35_125
*1072 FILLER_0_35_137
*1073 FILLER_0_35_149
*1074 FILLER_0_35_15
*1075 FILLER_0_35_161
*1076 FILLER_0_35_167
*1077 FILLER_0_35_169
*1078 FILLER_0_35_181
*1079 FILLER_0_35_193
*1080 FILLER_0_35_205
*1081 FILLER_0_35_217
*1082 FILLER_0_35_223
*1083 FILLER_0_35_225
*1084 FILLER_0_35_237
*1085 FILLER_0_35_249
*1086 FILLER_0_35_261
*1087 FILLER_0_35_27
*1088 FILLER_0_35_273
*1089 FILLER_0_35_279
*1090 FILLER_0_35_281
*1091 FILLER_0_35_293
*1092 FILLER_0_35_3
*1093 FILLER_0_35_305
*1094 FILLER_0_35_317
*1095 FILLER_0_35_329
*1096 FILLER_0_35_39
*1097 FILLER_0_35_51
*1098 FILLER_0_35_55
*1099 FILLER_0_35_57
*1100 FILLER_0_35_69
*1101 FILLER_0_35_81
*1102 FILLER_0_35_93
*1103 FILLER_0_36_109
*1104 FILLER_0_36_121
*1105 FILLER_0_36_130
*1106 FILLER_0_36_138
*1107 FILLER_0_36_144
*1108 FILLER_0_36_15
*1109 FILLER_0_36_156
*1110 FILLER_0_36_160
*1111 FILLER_0_36_172
*1112 FILLER_0_36_184
*1113 FILLER_0_36_195
*1114 FILLER_0_36_197
*1115 FILLER_0_36_203
*1116 FILLER_0_36_207
*1117 FILLER_0_36_222
*1118 FILLER_0_36_237
*1119 FILLER_0_36_248
*1120 FILLER_0_36_253
*1121 FILLER_0_36_261
*1122 FILLER_0_36_27
*1123 FILLER_0_36_278
*1124 FILLER_0_36_29
*1125 FILLER_0_36_290
*1126 FILLER_0_36_3
*1127 FILLER_0_36_301
*1128 FILLER_0_36_307
*1129 FILLER_0_36_309
*1130 FILLER_0_36_321
*1131 FILLER_0_36_333
*1132 FILLER_0_36_41
*1133 FILLER_0_36_53
*1134 FILLER_0_36_65
*1135 FILLER_0_36_77
*1136 FILLER_0_36_83
*1137 FILLER_0_36_85
*1138 FILLER_0_36_97
*1139 FILLER_0_37_105
*1140 FILLER_0_37_111
*1141 FILLER_0_37_113
*1142 FILLER_0_37_119
*1143 FILLER_0_37_15
*1144 FILLER_0_37_169
*1145 FILLER_0_37_189
*1146 FILLER_0_37_222
*1147 FILLER_0_37_27
*1148 FILLER_0_37_279
*1149 FILLER_0_37_3
*1150 FILLER_0_37_329
*1151 FILLER_0_37_39
*1152 FILLER_0_37_51
*1153 FILLER_0_37_55
*1154 FILLER_0_37_57
*1155 FILLER_0_37_69
*1156 FILLER_0_37_81
*1157 FILLER_0_37_93
*1158 FILLER_0_38_10
*1159 FILLER_0_38_102
*1160 FILLER_0_38_106
*1161 FILLER_0_38_110
*1162 FILLER_0_38_113
*1163 FILLER_0_38_118
*1164 FILLER_0_38_122
*1165 FILLER_0_38_126
*1166 FILLER_0_38_133
*1167 FILLER_0_38_139
*1168 FILLER_0_38_14
*1169 FILLER_0_38_144
*1170 FILLER_0_38_150
*1171 FILLER_0_38_154
*1172 FILLER_0_38_158
*1173 FILLER_0_38_162
*1174 FILLER_0_38_166
*1175 FILLER_0_38_169
*1176 FILLER_0_38_174
*1177 FILLER_0_38_178
*1178 FILLER_0_38_18
*1179 FILLER_0_38_182
*1180 FILLER_0_38_186
*1181 FILLER_0_38_190
*1182 FILLER_0_38_197
*1183 FILLER_0_38_209
*1184 FILLER_0_38_22
*1185 FILLER_0_38_221
*1186 FILLER_0_38_225
*1187 FILLER_0_38_237
*1188 FILLER_0_38_249
*1189 FILLER_0_38_253
*1190 FILLER_0_38_265
*1191 FILLER_0_38_277
*1192 FILLER_0_38_281
*1193 FILLER_0_38_293
*1194 FILLER_0_38_305
*1195 FILLER_0_38_309
*1196 FILLER_0_38_32
*1197 FILLER_0_38_321
*1198 FILLER_0_38_333
*1199 FILLER_0_38_38
*1200 FILLER_0_38_42
*1201 FILLER_0_38_46
*1202 FILLER_0_38_50
*1203 FILLER_0_38_54
*1204 FILLER_0_38_57
*1205 FILLER_0_38_6
*1206 FILLER_0_38_62
*1207 FILLER_0_38_66
*1208 FILLER_0_38_70
*1209 FILLER_0_38_74
*1210 FILLER_0_38_78
*1211 FILLER_0_38_88
*1212 FILLER_0_38_94
*1213 FILLER_0_38_98
*1214 FILLER_0_3_105
*1215 FILLER_0_3_111
*1216 FILLER_0_3_113
*1217 FILLER_0_3_125
*1218 FILLER_0_3_137
*1219 FILLER_0_3_149
*1220 FILLER_0_3_15
*1221 FILLER_0_3_161
*1222 FILLER_0_3_167
*1223 FILLER_0_3_169
*1224 FILLER_0_3_181
*1225 FILLER_0_3_193
*1226 FILLER_0_3_205
*1227 FILLER_0_3_217
*1228 FILLER_0_3_223
*1229 FILLER_0_3_225
*1230 FILLER_0_3_237
*1231 FILLER_0_3_249
*1232 FILLER_0_3_261
*1233 FILLER_0_3_27
*1234 FILLER_0_3_273
*1235 FILLER_0_3_279
*1236 FILLER_0_3_281
*1237 FILLER_0_3_293
*1238 FILLER_0_3_3
*1239 FILLER_0_3_305
*1240 FILLER_0_3_317
*1241 FILLER_0_3_329
*1242 FILLER_0_3_39
*1243 FILLER_0_3_51
*1244 FILLER_0_3_55
*1245 FILLER_0_3_57
*1246 FILLER_0_3_69
*1247 FILLER_0_3_81
*1248 FILLER_0_3_93
*1249 FILLER_0_4_109
*1250 FILLER_0_4_121
*1251 FILLER_0_4_133
*1252 FILLER_0_4_139
*1253 FILLER_0_4_141
*1254 FILLER_0_4_15
*1255 FILLER_0_4_153
*1256 FILLER_0_4_165
*1257 FILLER_0_4_177
*1258 FILLER_0_4_189
*1259 FILLER_0_4_195
*1260 FILLER_0_4_197
*1261 FILLER_0_4_209
*1262 FILLER_0_4_221
*1263 FILLER_0_4_233
*1264 FILLER_0_4_245
*1265 FILLER_0_4_251
*1266 FILLER_0_4_253
*1267 FILLER_0_4_265
*1268 FILLER_0_4_27
*1269 FILLER_0_4_277
*1270 FILLER_0_4_289
*1271 FILLER_0_4_29
*1272 FILLER_0_4_3
*1273 FILLER_0_4_301
*1274 FILLER_0_4_307
*1275 FILLER_0_4_309
*1276 FILLER_0_4_321
*1277 FILLER_0_4_333
*1278 FILLER_0_4_41
*1279 FILLER_0_4_53
*1280 FILLER_0_4_65
*1281 FILLER_0_4_77
*1282 FILLER_0_4_83
*1283 FILLER_0_4_85
*1284 FILLER_0_4_97
*1285 FILLER_0_5_105
*1286 FILLER_0_5_111
*1287 FILLER_0_5_113
*1288 FILLER_0_5_125
*1289 FILLER_0_5_137
*1290 FILLER_0_5_149
*1291 FILLER_0_5_15
*1292 FILLER_0_5_161
*1293 FILLER_0_5_167
*1294 FILLER_0_5_169
*1295 FILLER_0_5_181
*1296 FILLER_0_5_193
*1297 FILLER_0_5_205
*1298 FILLER_0_5_217
*1299 FILLER_0_5_223
*1300 FILLER_0_5_225
*1301 FILLER_0_5_237
*1302 FILLER_0_5_249
*1303 FILLER_0_5_261
*1304 FILLER_0_5_27
*1305 FILLER_0_5_273
*1306 FILLER_0_5_279
*1307 FILLER_0_5_281
*1308 FILLER_0_5_293
*1309 FILLER_0_5_3
*1310 FILLER_0_5_305
*1311 FILLER_0_5_317
*1312 FILLER_0_5_329
*1313 FILLER_0_5_39
*1314 FILLER_0_5_51
*1315 FILLER_0_5_55
*1316 FILLER_0_5_57
*1317 FILLER_0_5_69
*1318 FILLER_0_5_81
*1319 FILLER_0_5_93
*1320 FILLER_0_6_109
*1321 FILLER_0_6_121
*1322 FILLER_0_6_133
*1323 FILLER_0_6_139
*1324 FILLER_0_6_141
*1325 FILLER_0_6_15
*1326 FILLER_0_6_153
*1327 FILLER_0_6_165
*1328 FILLER_0_6_177
*1329 FILLER_0_6_189
*1330 FILLER_0_6_195
*1331 FILLER_0_6_197
*1332 FILLER_0_6_209
*1333 FILLER_0_6_221
*1334 FILLER_0_6_233
*1335 FILLER_0_6_245
*1336 FILLER_0_6_251
*1337 FILLER_0_6_253
*1338 FILLER_0_6_265
*1339 FILLER_0_6_27
*1340 FILLER_0_6_277
*1341 FILLER_0_6_289
*1342 FILLER_0_6_29
*1343 FILLER_0_6_3
*1344 FILLER_0_6_301
*1345 FILLER_0_6_307
*1346 FILLER_0_6_309
*1347 FILLER_0_6_321
*1348 FILLER_0_6_333
*1349 FILLER_0_6_41
*1350 FILLER_0_6_53
*1351 FILLER_0_6_65
*1352 FILLER_0_6_77
*1353 FILLER_0_6_83
*1354 FILLER_0_6_85
*1355 FILLER_0_6_97
*1356 FILLER_0_7_105
*1357 FILLER_0_7_111
*1358 FILLER_0_7_113
*1359 FILLER_0_7_125
*1360 FILLER_0_7_137
*1361 FILLER_0_7_149
*1362 FILLER_0_7_15
*1363 FILLER_0_7_161
*1364 FILLER_0_7_167
*1365 FILLER_0_7_169
*1366 FILLER_0_7_181
*1367 FILLER_0_7_193
*1368 FILLER_0_7_205
*1369 FILLER_0_7_217
*1370 FILLER_0_7_223
*1371 FILLER_0_7_225
*1372 FILLER_0_7_237
*1373 FILLER_0_7_249
*1374 FILLER_0_7_261
*1375 FILLER_0_7_27
*1376 FILLER_0_7_273
*1377 FILLER_0_7_279
*1378 FILLER_0_7_281
*1379 FILLER_0_7_293
*1380 FILLER_0_7_3
*1381 FILLER_0_7_305
*1382 FILLER_0_7_317
*1383 FILLER_0_7_329
*1384 FILLER_0_7_39
*1385 FILLER_0_7_51
*1386 FILLER_0_7_55
*1387 FILLER_0_7_57
*1388 FILLER_0_7_69
*1389 FILLER_0_7_81
*1390 FILLER_0_7_93
*1391 FILLER_0_8_109
*1392 FILLER_0_8_121
*1393 FILLER_0_8_133
*1394 FILLER_0_8_139
*1395 FILLER_0_8_141
*1396 FILLER_0_8_15
*1397 FILLER_0_8_153
*1398 FILLER_0_8_165
*1399 FILLER_0_8_177
*1400 FILLER_0_8_189
*1401 FILLER_0_8_195
*1402 FILLER_0_8_197
*1403 FILLER_0_8_209
*1404 FILLER_0_8_221
*1405 FILLER_0_8_233
*1406 FILLER_0_8_245
*1407 FILLER_0_8_251
*1408 FILLER_0_8_253
*1409 FILLER_0_8_265
*1410 FILLER_0_8_27
*1411 FILLER_0_8_277
*1412 FILLER_0_8_289
*1413 FILLER_0_8_29
*1414 FILLER_0_8_3
*1415 FILLER_0_8_301
*1416 FILLER_0_8_307
*1417 FILLER_0_8_309
*1418 FILLER_0_8_321
*1419 FILLER_0_8_333
*1420 FILLER_0_8_41
*1421 FILLER_0_8_53
*1422 FILLER_0_8_65
*1423 FILLER_0_8_77
*1424 FILLER_0_8_83
*1425 FILLER_0_8_85
*1426 FILLER_0_8_97
*1427 FILLER_0_9_105
*1428 FILLER_0_9_111
*1429 FILLER_0_9_113
*1430 FILLER_0_9_125
*1431 FILLER_0_9_137
*1432 FILLER_0_9_149
*1433 FILLER_0_9_15
*1434 FILLER_0_9_161
*1435 FILLER_0_9_167
*1436 FILLER_0_9_169
*1437 FILLER_0_9_181
*1438 FILLER_0_9_193
*1439 FILLER_0_9_205
*1440 FILLER_0_9_217
*1441 FILLER_0_9_223
*1442 FILLER_0_9_225
*1443 FILLER_0_9_237
*1444 FILLER_0_9_249
*1445 FILLER_0_9_261
*1446 FILLER_0_9_27
*1447 FILLER_0_9_273
*1448 FILLER_0_9_279
*1449 FILLER_0_9_281
*1450 FILLER_0_9_293
*1451 FILLER_0_9_3
*1452 FILLER_0_9_305
*1453 FILLER_0_9_317
*1454 FILLER_0_9_329
*1455 FILLER_0_9_39
*1456 FILLER_0_9_51
*1457 FILLER_0_9_55
*1458 FILLER_0_9_57
*1459 FILLER_0_9_69
*1460 FILLER_0_9_81
*1461 FILLER_0_9_93