*SPEF "ieee 1481-1999"
*DESIGN "tt_um_sanojn_ttrpg_dice"
*DATE "14:00:21 Wednesday April 10, 2024"
*VENDOR "The OpenROAD Project"
*PROGRAM "OpenROAD"
*VERSION "0889970d1790a2617e69f253221b8bd7626e51dc"
*DESIGN_FLOW "NAME_SCOPE LOCAL" "PIN_CAP NONE"
*DIVIDER /
*DELIMITER :
*BUS_DELIMITER []
*T_UNIT 1 NS
*C_UNIT 1 PF
*R_UNIT 1 OHM
*L_UNIT 1 HENRY

*NAME_MAP
*3 clk
*4 ena
*5 rst_n
*6 ui_in[0]
*7 ui_in[1]
*8 ui_in[2]
*9 ui_in[3]
*10 ui_in[4]
*11 ui_in[5]
*12 ui_in[6]
*13 ui_in[7]
*14 uio_in[0]
*15 uio_in[1]
*16 uio_in[2]
*17 uio_in[3]
*18 uio_in[4]
*19 uio_in[5]
*20 uio_in[6]
*21 uio_in[7]
*22 uio_oe[0]
*23 uio_oe[1]
*24 net19
*25 net28
*26 net29
*27 net20
*28 net21
*29 net22
*30 uio_out[0]
*31 net23
*32 net24
*33 uio_out[3]
*34 uio_out[4]
*35 net25
*36 net26
*37 net27
*38 uo_out[0]
*39 uo_out[1]
*40 uo_out[2]
*41 uo_out[3]
*42 uo_out[4]
*43 uo_out[5]
*44 uo_out[6]
*45 uo_out[7]
*46 Btn100_deb\.button
*47 Btn100_deb\.button_d
*48 Btn100_deb\.debounced
*49 Btn100_deb\.rst_n
*50 Btn100_deb\.state\[0\]
*51 Btn100_deb\.state\[1\]
*52 Btn100_deb\.state\[2\]
*53 Btn100_deb\.tick
*54 Btn10_deb\.button
*55 Btn10_deb\.button_d
*56 Btn10_deb\.debounced
*57 Btn10_deb\.state\[0\]
*58 Btn10_deb\.state\[1\]
*59 Btn10_deb\.state\[2\]
*60 Btn12_deb\.button
*61 Btn12_deb\.button_d
*62 Btn12_deb\.debounced
*63 Btn12_deb\.state\[0\]
*64 Btn12_deb\.state\[1\]
*65 Btn12_deb\.state\[2\]
*66 Btn20_deb\.button
*67 Btn20_deb\.button_d
*68 Btn20_deb\.debounced
*69 Btn20_deb\.state\[0\]
*70 Btn20_deb\.state\[1\]
*71 Btn20_deb\.state\[2\]
*72 Btn4_deb\.button
*73 Btn4_deb\.button_d
*74 Btn4_deb\.debounced
*75 Btn4_deb\.state\[0\]
*76 Btn4_deb\.state\[1\]
*77 Btn4_deb\.state\[2\]
*78 Btn6_deb\.button
*79 Btn6_deb\.button_d
*80 Btn6_deb\.debounced
*81 Btn6_deb\.state\[0\]
*82 Btn6_deb\.state\[1\]
*83 Btn6_deb\.state\[2\]
*84 Btn7_deb\.button
*85 Btn7_deb\.button_d
*86 Btn7_deb\.debounced
*87 Btn7_deb\.state\[0\]
*88 Btn7_deb\.state\[1\]
*89 Btn7_deb\.state\[2\]
*90 IOctrl\[0\]
*91 IOctrl\[1\]
*92 IOctrl\[2\]
*93 IOctrl\[3\]
*94 IOctrl\[4\]
*95 IOctrl\[5\]
*96 IOctrl\[6\]
*97 IOctrl\[7\]
*98 _0000_
*99 _0001_
*100 _0002_
*101 _0003_
*102 _0004_
*103 _0005_
*104 _0006_
*105 _0007_
*106 _0008_
*107 _0009_
*108 _0010_
*109 _0011_
*110 _0012_
*111 _0013_
*112 _0014_
*113 _0015_
*114 _0016_
*115 _0017_
*116 _0018_
*117 _0019_
*118 _0020_
*119 _0021_
*120 _0022_
*121 _0023_
*122 _0024_
*123 _0025_
*124 _0026_
*125 _0027_
*126 _0028_
*127 _0029_
*128 _0030_
*129 _0031_
*130 _0032_
*131 _0033_
*132 _0034_
*133 _0035_
*134 _0036_
*135 _0037_
*136 _0038_
*137 _0039_
*138 _0040_
*139 _0041_
*140 _0042_
*141 _0043_
*142 _0044_
*143 _0045_
*144 _0046_
*145 _0047_
*146 _0048_
*147 _0049_
*148 _0050_
*149 _0051_
*150 _0052_
*151 _0053_
*152 _0054_
*153 _0055_
*154 _0058_
*155 _0059_
*156 _0060_
*157 _0061_
*158 _0062_
*159 _0063_
*160 _0064_
*161 _0065_
*162 _0066_
*163 _0067_
*164 _0068_
*165 _0069_
*166 _0070_
*167 _0071_
*168 _0072_
*169 _0073_
*170 _0074_
*171 _0075_
*172 _0076_
*173 _0077_
*174 _0078_
*175 _0079_
*176 _0080_
*177 _0081_
*178 _0082_
*179 _0083_
*180 _0084_
*181 _0085_
*182 _0086_
*183 _0087_
*184 _0088_
*185 _0089_
*186 _0090_
*187 _0091_
*188 _0092_
*189 _0093_
*190 _0094_
*191 _0095_
*192 _0096_
*193 _0097_
*194 _0098_
*195 _0099_
*196 _0100_
*197 _0101_
*198 _0102_
*199 _0103_
*200 _0104_
*201 _0105_
*202 _0106_
*203 _0107_
*204 _0108_
*205 _0109_
*206 _0110_
*207 _0111_
*208 _0112_
*209 _0113_
*210 _0114_
*211 _0115_
*212 _0116_
*213 _0117_
*214 _0118_
*215 _0119_
*216 _0120_
*217 _0121_
*218 _0122_
*219 _0123_
*220 _0124_
*221 _0125_
*222 _0126_
*223 _0127_
*224 _0128_
*225 _0129_
*226 _0130_
*227 _0131_
*228 _0132_
*229 _0133_
*230 _0134_
*231 _0135_
*232 _0136_
*233 _0137_
*234 _0138_
*235 _0139_
*236 _0140_
*237 _0141_
*238 _0142_
*239 _0143_
*240 _0144_
*241 _0145_
*242 _0146_
*243 _0147_
*244 _0148_
*245 _0149_
*246 _0150_
*247 _0151_
*248 _0152_
*249 _0153_
*250 _0154_
*251 _0155_
*252 _0156_
*253 _0157_
*254 _0158_
*255 _0159_
*256 _0160_
*257 _0161_
*258 _0162_
*259 _0163_
*260 _0164_
*261 _0165_
*262 _0166_
*263 _0167_
*264 _0168_
*265 _0169_
*266 _0170_
*267 _0171_
*268 _0172_
*269 _0173_
*270 _0174_
*271 _0175_
*272 _0176_
*273 _0177_
*274 _0178_
*275 _0179_
*276 _0180_
*277 _0181_
*278 _0182_
*279 _0183_
*280 _0184_
*281 _0185_
*282 _0186_
*283 _0187_
*284 _0188_
*285 _0189_
*286 _0190_
*287 _0191_
*288 _0192_
*289 _0193_
*290 _0194_
*291 _0195_
*292 _0196_
*293 _0197_
*294 _0198_
*295 _0199_
*296 _0200_
*297 _0201_
*298 _0202_
*299 _0203_
*300 _0204_
*301 _0205_
*302 _0206_
*303 _0207_
*304 _0208_
*305 _0209_
*306 _0210_
*307 _0211_
*308 _0212_
*309 _0213_
*310 _0214_
*311 _0215_
*312 _0216_
*313 _0217_
*314 _0218_
*315 _0219_
*316 _0220_
*317 _0221_
*318 _0222_
*319 _0223_
*320 _0224_
*321 _0225_
*322 _0226_
*323 _0227_
*324 _0228_
*325 _0229_
*326 _0230_
*327 _0231_
*328 _0232_
*329 _0233_
*330 _0234_
*331 _0235_
*332 _0236_
*333 _0237_
*334 _0238_
*335 _0239_
*336 _0240_
*337 _0241_
*338 _0242_
*339 _0243_
*340 _0244_
*341 _0245_
*342 _0246_
*343 _0247_
*344 _0248_
*345 _0249_
*346 _0250_
*347 _0251_
*348 _0252_
*349 _0253_
*350 _0254_
*351 _0255_
*352 _0256_
*353 _0257_
*354 _0258_
*355 _0259_
*356 _0260_
*357 _0261_
*358 _0262_
*359 _0263_
*360 _0264_
*361 _0265_
*362 _0266_
*363 _0267_
*364 _0268_
*365 _0269_
*366 _0270_
*367 _0271_
*368 _0272_
*369 _0273_
*370 _0274_
*371 _0275_
*372 _0276_
*373 _0277_
*374 _0278_
*375 _0279_
*376 _0280_
*377 _0281_
*378 _0282_
*379 _0283_
*380 _0284_
*381 _0285_
*382 _0286_
*383 _0287_
*384 _0288_
*385 _0289_
*386 _0290_
*387 _0291_
*388 _0292_
*389 _0293_
*390 _0294_
*391 _0295_
*392 _0296_
*393 _0297_
*394 _0298_
*395 _0299_
*396 _0300_
*397 _0301_
*398 _0302_
*399 _0303_
*400 _0304_
*401 _0305_
*402 _0306_
*403 _0307_
*404 _0308_
*405 _0309_
*406 _0310_
*407 _0311_
*408 _0312_
*409 _0313_
*410 _0314_
*411 _0315_
*412 _0316_
*413 _0317_
*414 _0318_
*415 _0319_
*416 _0320_
*417 _0321_
*418 _0322_
*419 _0323_
*420 _0324_
*421 _0325_
*422 _0326_
*423 _0327_
*424 _0328_
*425 _0329_
*426 _0330_
*427 _0331_
*428 _0332_
*429 _0333_
*430 _0334_
*431 _0335_
*432 _0336_
*433 _0337_
*434 _0338_
*435 _0339_
*436 _0340_
*437 _0341_
*438 _0342_
*439 _0343_
*440 _0344_
*441 _0345_
*442 _0346_
*443 _0347_
*444 _0348_
*445 _0349_
*446 _0350_
*447 _0351_
*448 _0352_
*449 _0353_
*450 _0354_
*451 _0355_
*452 _0356_
*453 _0357_
*454 _0358_
*455 _0359_
*456 _0360_
*457 _0361_
*458 _0362_
*459 _0363_
*460 _0364_
*461 _0365_
*462 _0366_
*463 _0367_
*464 _0368_
*465 _0369_
*466 _0370_
*467 _0371_
*468 _0372_
*469 _0373_
*470 _0374_
*471 _0375_
*472 _0376_
*473 _0377_
*474 _0378_
*475 _0379_
*476 _0380_
*477 _0381_
*478 _0382_
*479 _0383_
*480 _0384_
*481 _0385_
*482 _0386_
*483 _0387_
*484 _0388_
*485 _0389_
*486 _0390_
*487 _0391_
*488 _0392_
*489 _0393_
*490 _0394_
*491 _0395_
*492 _0396_
*493 _0397_
*494 _0398_
*495 _0399_
*496 _0400_
*497 _0401_
*498 _0402_
*499 _0403_
*500 _0404_
*501 _0405_
*502 _0406_
*503 _0407_
*504 _0408_
*505 _0409_
*506 _0410_
*507 _0411_
*508 _0412_
*509 _0413_
*510 _0414_
*511 _0415_
*512 _0416_
*513 _0417_
*514 _0418_
*515 _0419_
*516 _0420_
*517 _0421_
*518 _0422_
*519 _0423_
*520 _0424_
*521 _0425_
*522 _0426_
*523 _0427_
*524 _0428_
*525 _0429_
*526 _0430_
*527 _0431_
*528 _0432_
*529 _0433_
*530 _0434_
*531 _0435_
*532 _0436_
*533 _0437_
*534 _0438_
*535 _0439_
*536 _0440_
*537 _0441_
*538 _0442_
*539 _0444_
*540 _0445_
*541 _0446_
*542 _0448_
*543 _0449_
*544 _0450_
*545 _0451_
*546 _0452_
*547 _0453_
*548 _0454_
*549 _0455_
*550 _0456_
*551 _0457_
*552 _0458_
*553 _0459_
*554 _0460_
*555 _0461_
*556 _0462_
*557 _0463_
*558 _0464_
*559 _0465_
*560 _0466_
*561 _0467_
*562 _0468_
*563 _0469_
*564 _0470_
*565 _0471_
*566 _0472_
*567 _0473_
*568 _0474_
*569 _0475_
*570 _0476_
*571 _0477_
*572 _0478_
*573 _0479_
*574 _0480_
*575 _0481_
*576 _0482_
*577 _0483_
*578 _0484_
*579 _0485_
*580 _0486_
*581 _0487_
*582 _0488_
*583 _0489_
*584 _0490_
*585 _0491_
*586 _0492_
*587 _0493_
*588 _0494_
*589 _0495_
*590 _0496_
*591 _0497_
*592 _0498_
*593 _0499_
*594 _0500_
*595 _0501_
*596 _0502_
*597 _0503_
*598 _0504_
*599 _0505_
*600 _0506_
*601 _0507_
*602 _0508_
*603 _0509_
*604 _0510_
*605 _0511_
*606 _0512_
*607 _0513_
*608 _0514_
*609 _0515_
*610 _0516_
*611 _0517_
*612 _0518_
*613 _0519_
*614 _0520_
*615 _0521_
*616 _0522_
*617 _0523_
*618 _0524_
*619 _0525_
*620 _0526_
*621 _0527_
*622 _0528_
*623 _0529_
*624 _0530_
*625 _0531_
*626 _0532_
*627 _0533_
*628 _0534_
*629 _0535_
*630 _0536_
*631 _0537_
*632 _0538_
*633 _0539_
*634 _0540_
*635 _0541_
*636 _0542_
*637 _0543_
*638 _0544_
*639 _0545_
*640 _0546_
*641 _0547_
*642 _0548_
*643 _0549_
*644 _0550_
*645 _0551_
*646 _0552_
*647 _0553_
*648 _0554_
*649 _0555_
*650 _0556_
*651 _0557_
*652 _0558_
*653 _0559_
*654 _0560_
*655 _0561_
*656 _0562_
*657 _0563_
*658 _0564_
*659 _0565_
*660 _0566_
*661 _0567_
*662 _0568_
*663 _0569_
*664 _0570_
*665 _0571_
*666 _0572_
*667 _0573_
*668 _0574_
*669 _0575_
*670 _0576_
*671 _0577_
*672 _0578_
*673 _0579_
*674 _0580_
*675 _0581_
*676 _0582_
*677 _0583_
*678 _0584_
*679 _0585_
*680 _0586_
*681 _0587_
*682 _0588_
*683 _0589_
*684 _0590_
*685 _0591_
*686 _0592_
*687 _0593_
*688 _0594_
*689 _0595_
*690 _0596_
*691 _0597_
*692 _0598_
*693 _0599_
*694 _0600_
*695 _0601_
*696 _0602_
*697 _0603_
*698 _0604_
*699 _0605_
*700 _0606_
*701 _0607_
*702 _0608_
*703 _0609_
*704 _0610_
*705 _0611_
*706 _0612_
*707 _0613_
*708 _0614_
*709 _0615_
*710 _0616_
*711 _0617_
*712 _0618_
*713 _0619_
*714 _0620_
*715 _0621_
*716 _0622_
*717 _0623_
*718 _0624_
*719 _0625_
*720 _0626_
*721 _0627_
*722 _0628_
*723 _0629_
*724 _0630_
*725 _0631_
*726 _0632_
*727 _0633_
*728 _0634_
*729 _0635_
*730 _0636_
*731 _0637_
*732 _0638_
*733 _0639_
*734 _0640_
*735 _0641_
*736 _0642_
*737 _0643_
*738 _0644_
*739 _0645_
*740 _0646_
*741 _0647_
*742 _0648_
*743 _0649_
*744 _0650_
*745 _0651_
*746 _0652_
*747 _0653_
*748 _0654_
*749 _0655_
*750 _0656_
*751 _0657_
*752 _0658_
*753 _0659_
*754 _0660_
*755 _0661_
*756 _0662_
*757 _0663_
*758 _0664_
*759 _0665_
*760 _0666_
*761 _0667_
*762 _0668_
*763 _0669_
*764 _0670_
*765 _0671_
*766 _0672_
*767 _0673_
*768 _0674_
*769 _0675_
*770 _0676_
*771 _0677_
*772 _0678_
*773 _0679_
*774 _0680_
*775 _0681_
*776 _0682_
*777 _0683_
*778 _0684_
*779 _0685_
*780 _0686_
*781 _0687_
*782 _0688_
*783 _0689_
*784 _0690_
*785 _0691_
*786 _0692_
*787 _0693_
*788 _0694_
*789 _0695_
*790 _0696_
*791 _0697_
*792 _0698_
*793 _0699_
*794 _0700_
*795 _0701_
*796 _0702_
*797 _0703_
*798 _0704_
*799 _0705_
*800 _0706_
*801 _0707_
*802 _0708_
*803 _0709_
*804 clknet_0__0420_
*805 clknet_0__0421_
*806 clknet_0__0422_
*807 clknet_0__0423_
*808 clknet_0__0424_
*809 clknet_0__0425_
*810 clknet_0__0436_
*811 clknet_0__0438_
*812 clknet_0__0439_
*813 clknet_0__0440_
*814 clknet_0__0442_
*815 clknet_0__0449_
*816 clknet_0_clk
*817 clknet_1_0__leaf__0420_
*818 clknet_1_0__leaf__0421_
*819 clknet_1_0__leaf__0422_
*820 clknet_1_0__leaf__0423_
*821 clknet_1_0__leaf__0424_
*822 clknet_1_0__leaf__0425_
*823 clknet_1_0__leaf__0436_
*824 clknet_1_0__leaf__0438_
*825 clknet_1_0__leaf__0439_
*826 clknet_1_0__leaf__0440_
*827 clknet_1_0__leaf__0442_
*828 clknet_1_0__leaf__0449_
*829 clknet_1_1__leaf__0420_
*830 clknet_1_1__leaf__0421_
*831 clknet_1_1__leaf__0422_
*832 clknet_1_1__leaf__0423_
*833 clknet_1_1__leaf__0424_
*834 clknet_1_1__leaf__0425_
*835 clknet_1_1__leaf__0436_
*836 clknet_1_1__leaf__0438_
*837 clknet_1_1__leaf__0439_
*838 clknet_1_1__leaf__0440_
*839 clknet_1_1__leaf__0442_
*840 clknet_1_1__leaf__0449_
*841 clknet_4_0_0_clk
*842 clknet_4_10_0_clk
*843 clknet_4_11_0_clk
*844 clknet_4_12_0_clk
*845 clknet_4_13_0_clk
*846 clknet_4_14_0_clk
*847 clknet_4_15_0_clk
*848 clknet_4_1_0_clk
*849 clknet_4_2_0_clk
*850 clknet_4_3_0_clk
*851 clknet_4_4_0_clk
*852 clknet_4_5_0_clk
*853 clknet_4_6_0_clk
*854 clknet_4_7_0_clk
*855 clknet_4_8_0_clk
*856 clknet_4_9_0_clk
*857 digit10\[0\]
*858 digit10\[1\]
*859 digit10\[2\]
*860 digit10\[3\]
*861 digit1\[0\]
*862 digit1\[1\]
*863 digit1\[2\]
*864 digit1\[3\]
*865 i2c\.addr\[0\]
*866 i2c\.addr\[1\]
*867 i2c\.addr\[2\]
*868 i2c\.addr\[3\]
*869 i2c\.bus_start
*870 i2c\.bus_stop
*871 i2c\.dbyte\[0\]
*872 i2c\.dbyte\[1\]
*873 i2c\.dbyte\[2\]
*874 i2c\.dbyte\[3\]
*875 i2c\.dbyte\[4\]
*876 i2c\.dbyte\[5\]
*877 i2c\.dbyte\[6\]
*878 i2c\.dbyte\[7\]
*879 i2c\.last_event\[0\]
*880 i2c\.last_event\[3\]
*881 i2c\.pull_sda
*882 i2c\.scl_d\[0\]
*883 i2c\.scl_d\[1\]
*884 i2c\.scl_d\[2\]
*885 i2c\.scl_d\[3\]
*886 i2c\.sda_d\[0\]
*887 i2c\.sda_d\[1\]
*888 i2c\.sda_d\[2\]
*889 i2c\.sda_d\[3\]
*890 i2c\.wen
*891 io_oe
*892 mem\[0\]\[0\]
*893 mem\[0\]\[1\]
*894 mem\[0\]\[2\]
*895 mem\[0\]\[3\]
*896 mem\[0\]\[4\]
*897 mem\[0\]\[5\]
*898 mem\[0\]\[6\]
*899 mem\[0\]\[7\]
*900 mem\[1\]\[0\]
*901 mem\[1\]\[1\]
*902 mem\[1\]\[2\]
*903 mem\[1\]\[3\]
*904 mem\[1\]\[4\]
*905 mem\[1\]\[5\]
*906 mem\[1\]\[6\]
*907 mem\[1\]\[7\]
*908 mem\[2\]\[0\]
*909 mem\[2\]\[1\]
*910 mem\[2\]\[2\]
*911 mem\[2\]\[3\]
*912 mem\[2\]\[4\]
*913 mem\[2\]\[5\]
*914 mem\[2\]\[6\]
*915 mem\[2\]\[7\]
*916 mem\[3\]\[0\]
*917 mem\[3\]\[1\]
*918 mem\[3\]\[2\]
*919 mem\[3\]\[3\]
*920 mem\[3\]\[4\]
*921 mem\[3\]\[5\]
*922 mem\[3\]\[6\]
*923 mem\[3\]\[7\]
*924 mem\[4\]\[0\]
*925 mem\[4\]\[1\]
*926 mem\[4\]\[2\]
*927 mem\[4\]\[3\]
*928 mem\[4\]\[4\]
*929 mem\[4\]\[5\]
*930 mem\[4\]\[6\]
*931 mem\[4\]\[7\]
*932 mem\[5\]\[0\]
*933 mem\[5\]\[1\]
*934 mem\[5\]\[2\]
*935 mem\[5\]\[3\]
*936 mem\[5\]\[4\]
*937 mem\[5\]\[5\]
*938 mem\[5\]\[6\]
*939 mem\[5\]\[7\]
*940 mem\[6\]\[0\]
*941 mem\[6\]\[1\]
*942 mem\[6\]\[2\]
*943 mem\[6\]\[3\]
*944 mem\[6\]\[4\]
*945 mem\[6\]\[5\]
*946 mem\[6\]\[6\]
*947 mem\[6\]\[7\]
*948 mem\[7\]\[0\]
*949 mem\[7\]\[1\]
*950 mem\[7\]\[2\]
*951 mem\[7\]\[3\]
*952 mem\[7\]\[4\]
*953 mem\[7\]\[5\]
*954 mem\[7\]\[6\]
*955 mem\[7\]\[7\]
*956 net1
*957 net10
*958 net100
*959 net101
*960 net102
*961 net103
*962 net104
*963 net105
*964 net106
*965 net107
*966 net108
*967 net109
*968 net11
*969 net110
*970 net111
*971 net112
*972 net113
*973 net114
*974 net115
*975 net116
*976 net117
*977 net118
*978 net119
*979 net12
*980 net120
*981 net121
*982 net122
*983 net123
*984 net124
*985 net125
*986 net126
*987 net127
*988 net128
*989 net129
*990 net13
*991 net130
*992 net131
*993 net132
*994 net133
*995 net134
*996 net135
*997 net136
*998 net137
*999 net138
*1000 net139
*1001 net14
*1002 net140
*1003 net141
*1004 net142
*1005 net143
*1006 net144
*1007 net145
*1008 net146
*1009 net147
*1010 net148
*1011 net149
*1012 net15
*1013 net150
*1014 net151
*1015 net152
*1016 net153
*1017 net154
*1018 net155
*1019 net156
*1020 net157
*1021 net158
*1022 net159
*1023 net16
*1024 net160
*1025 net161
*1026 net162
*1027 net163
*1028 net164
*1029 net165
*1030 net166
*1031 net167
*1032 net168
*1033 net169
*1034 net17
*1035 net170
*1036 net171
*1037 net172
*1038 net173
*1039 net174
*1040 net175
*1041 net176
*1042 net177
*1043 net178
*1044 net179
*1045 net18
*1046 net2
*1047 net3
*1048 net30
*1049 net31
*1050 net32
*1051 net33
*1052 net34
*1053 net35
*1054 net36
*1055 net37
*1056 net38
*1057 net39
*1058 net4
*1059 net40
*1060 net41
*1061 net42
*1062 net43
*1063 net44
*1064 net45
*1065 net46
*1066 net47
*1067 net48
*1068 net49
*1069 net5
*1070 net50
*1071 net51
*1072 net52
*1073 net53
*1074 net54
*1075 net55
*1076 net56
*1077 net57
*1078 net58
*1079 net59
*1080 net6
*1081 net60
*1082 net61
*1083 net62
*1084 net63
*1085 net64
*1086 net65
*1087 net66
*1088 net67
*1089 net68
*1090 net69
*1091 net7
*1092 net70
*1093 net71
*1094 net72
*1095 net73
*1096 net74
*1097 net75
*1098 net76
*1099 net77
*1100 net78
*1101 net79
*1102 net8
*1103 net80
*1104 net81
*1105 net82
*1106 net83
*1107 net84
*1108 net85
*1109 net86
*1110 net87
*1111 net88
*1112 net89
*1113 net9
*1114 net90
*1115 net91
*1116 net92
*1117 net93
*1118 net94
*1119 net95
*1120 net96
*1121 net97
*1122 net98
*1123 net99
*1124 prescaler\[0\]
*1125 prescaler\[1\]
*1126 prescaler\[2\]
*1127 prescaler\[3\]
*1128 prescaler\[4\]
*1129 prescaler\[5\]
*1130 prescaler\[6\]
*1131 prescaler\[7\]
*1132 prescaler\[8\]
*1133 prescaler\[9\]
*1134 pwm\[0\]
*1135 pwm\[1\]
*1136 pwm\[2\]
*1137 pwm\[3\]
*1138 pwm\[4\]
*1139 pwm\[5\]
*1140 pwm\[6\]
*1141 pwm\[7\]
*1142 rst_sync1
*1143 tick
*1144 timeoutCounter\[0\]
*1145 timeoutCounter\[1\]
*1146 timeoutCounter\[2\]
*1147 timeoutCounter\[3\]
*1148 timeoutCounter\[4\]
*1149 timeoutCounter\[5\]
*1150 timeoutCounter\[6\]
*1151 timeoutCounter\[7\]
*1152 ANTENNA_1
*1153 FILLER_0_0_102
*1154 FILLER_0_0_110
*1155 FILLER_0_0_113
*1156 FILLER_0_0_137
*1157 FILLER_0_0_141
*1158 FILLER_0_0_15
*1159 FILLER_0_0_160
*1160 FILLER_0_0_169
*1161 FILLER_0_0_181
*1162 FILLER_0_0_192
*1163 FILLER_0_0_205
*1164 FILLER_0_0_213
*1165 FILLER_0_0_220
*1166 FILLER_0_0_225
*1167 FILLER_0_0_235
*1168 FILLER_0_0_249
*1169 FILLER_0_0_253
*1170 FILLER_0_0_265
*1171 FILLER_0_0_27
*1172 FILLER_0_0_277
*1173 FILLER_0_0_29
*1174 FILLER_0_0_290
*1175 FILLER_0_0_3
*1176 FILLER_0_0_302
*1177 FILLER_0_0_309
*1178 FILLER_0_0_321
*1179 FILLER_0_0_333
*1180 FILLER_0_0_41
*1181 FILLER_0_0_53
*1182 FILLER_0_0_57
*1183 FILLER_0_0_69
*1184 FILLER_0_0_73
*1185 FILLER_0_0_83
*1186 FILLER_0_10_111
*1187 FILLER_0_10_137
*1188 FILLER_0_10_15
*1189 FILLER_0_10_152
*1190 FILLER_0_10_171
*1191 FILLER_0_10_181
*1192 FILLER_0_10_19
*1193 FILLER_0_10_190
*1194 FILLER_0_10_197
*1195 FILLER_0_10_209
*1196 FILLER_0_10_231
*1197 FILLER_0_10_246
*1198 FILLER_0_10_261
*1199 FILLER_0_10_272
*1200 FILLER_0_10_276
*1201 FILLER_0_10_3
*1202 FILLER_0_10_307
*1203 FILLER_0_10_312
*1204 FILLER_0_10_33
*1205 FILLER_0_10_333
*1206 FILLER_0_10_42
*1207 FILLER_0_10_48
*1208 FILLER_0_10_82
*1209 FILLER_0_10_85
*1210 FILLER_0_11_111
*1211 FILLER_0_11_122
*1212 FILLER_0_11_15
*1213 FILLER_0_11_151
*1214 FILLER_0_11_155
*1215 FILLER_0_11_164
*1216 FILLER_0_11_244
*1217 FILLER_0_11_278
*1218 FILLER_0_11_290
*1219 FILLER_0_11_3
*1220 FILLER_0_11_51
*1221 FILLER_0_11_55
*1222 FILLER_0_11_57
*1223 FILLER_0_11_91
*1224 FILLER_0_12_117
*1225 FILLER_0_12_197
*1226 FILLER_0_12_203
*1227 FILLER_0_12_248
*1228 FILLER_0_12_253
*1229 FILLER_0_12_257
*1230 FILLER_0_12_275
*1231 FILLER_0_12_283
*1232 FILLER_0_12_29
*1233 FILLER_0_12_3
*1234 FILLER_0_12_309
*1235 FILLER_0_12_313
*1236 FILLER_0_12_322
*1237 FILLER_0_12_334
*1238 FILLER_0_12_48
*1239 FILLER_0_12_97
*1240 FILLER_0_13_15
*1241 FILLER_0_13_151
*1242 FILLER_0_13_160
*1243 FILLER_0_13_169
*1244 FILLER_0_13_192
*1245 FILLER_0_13_205
*1246 FILLER_0_13_221
*1247 FILLER_0_13_261
*1248 FILLER_0_13_273
*1249 FILLER_0_13_279
*1250 FILLER_0_13_281
*1251 FILLER_0_13_294
*1252 FILLER_0_13_3
*1253 FILLER_0_13_334
*1254 FILLER_0_13_37
*1255 FILLER_0_13_57
*1256 FILLER_0_13_91
*1257 FILLER_0_13_95
*1258 FILLER_0_14_102
*1259 FILLER_0_14_123
*1260 FILLER_0_14_135
*1261 FILLER_0_14_139
*1262 FILLER_0_14_15
*1263 FILLER_0_14_157
*1264 FILLER_0_14_189
*1265 FILLER_0_14_195
*1266 FILLER_0_14_201
*1267 FILLER_0_14_213
*1268 FILLER_0_14_221
*1269 FILLER_0_14_237
*1270 FILLER_0_14_245
*1271 FILLER_0_14_251
*1272 FILLER_0_14_253
*1273 FILLER_0_14_286
*1274 FILLER_0_14_298
*1275 FILLER_0_14_3
*1276 FILLER_0_14_305
*1277 FILLER_0_14_334
*1278 FILLER_0_14_39
*1279 FILLER_0_14_51
*1280 FILLER_0_14_55
*1281 FILLER_0_14_81
*1282 FILLER_0_14_85
*1283 FILLER_0_14_89
*1284 FILLER_0_14_98
*1285 FILLER_0_15_102
*1286 FILLER_0_15_11
*1287 FILLER_0_15_110
*1288 FILLER_0_15_113
*1289 FILLER_0_15_125
*1290 FILLER_0_15_153
*1291 FILLER_0_15_165
*1292 FILLER_0_15_169
*1293 FILLER_0_15_177
*1294 FILLER_0_15_197
*1295 FILLER_0_15_209
*1296 FILLER_0_15_219
*1297 FILLER_0_15_223
*1298 FILLER_0_15_234
*1299 FILLER_0_15_246
*1300 FILLER_0_15_258
*1301 FILLER_0_15_298
*1302 FILLER_0_15_3
*1303 FILLER_0_15_302
*1304 FILLER_0_15_308
*1305 FILLER_0_15_321
*1306 FILLER_0_15_334
*1307 FILLER_0_15_43
*1308 FILLER_0_15_55
*1309 FILLER_0_15_57
*1310 FILLER_0_15_65
*1311 FILLER_0_15_90
*1312 FILLER_0_16_120
*1313 FILLER_0_16_126
*1314 FILLER_0_16_157
*1315 FILLER_0_16_169
*1316 FILLER_0_16_204
*1317 FILLER_0_16_226
*1318 FILLER_0_16_248
*1319 FILLER_0_16_27
*1320 FILLER_0_16_277
*1321 FILLER_0_16_29
*1322 FILLER_0_16_3
*1323 FILLER_0_16_301
*1324 FILLER_0_16_309
*1325 FILLER_0_16_328
*1326 FILLER_0_16_334
*1327 FILLER_0_16_46
*1328 FILLER_0_16_68
*1329 FILLER_0_16_7
*1330 FILLER_0_16_82
*1331 FILLER_0_16_85
*1332 FILLER_0_17_11
*1333 FILLER_0_17_110
*1334 FILLER_0_17_125
*1335 FILLER_0_17_131
*1336 FILLER_0_17_144
*1337 FILLER_0_17_167
*1338 FILLER_0_17_169
*1339 FILLER_0_17_179
*1340 FILLER_0_17_211
*1341 FILLER_0_17_225
*1342 FILLER_0_17_258
*1343 FILLER_0_17_266
*1344 FILLER_0_17_273
*1345 FILLER_0_17_279
*1346 FILLER_0_17_29
*1347 FILLER_0_17_3
*1348 FILLER_0_17_301
*1349 FILLER_0_17_327
*1350 FILLER_0_17_43
*1351 FILLER_0_17_49
*1352 FILLER_0_17_86
*1353 FILLER_0_18_110
*1354 FILLER_0_18_130
*1355 FILLER_0_18_138
*1356 FILLER_0_18_141
*1357 FILLER_0_18_15
*1358 FILLER_0_18_152
*1359 FILLER_0_18_193
*1360 FILLER_0_18_202
*1361 FILLER_0_18_218
*1362 FILLER_0_18_233
*1363 FILLER_0_18_245
*1364 FILLER_0_18_251
*1365 FILLER_0_18_261
*1366 FILLER_0_18_27
*1367 FILLER_0_18_272
*1368 FILLER_0_18_299
*1369 FILLER_0_18_3
*1370 FILLER_0_18_326
*1371 FILLER_0_18_33
*1372 FILLER_0_18_334
*1373 FILLER_0_18_39
*1374 FILLER_0_18_66
*1375 FILLER_0_18_92
*1376 FILLER_0_19_102
*1377 FILLER_0_19_113
*1378 FILLER_0_19_125
*1379 FILLER_0_19_149
*1380 FILLER_0_19_154
*1381 FILLER_0_19_160
*1382 FILLER_0_19_164
*1383 FILLER_0_19_174
*1384 FILLER_0_19_197
*1385 FILLER_0_19_209
*1386 FILLER_0_19_218
*1387 FILLER_0_19_225
*1388 FILLER_0_19_232
*1389 FILLER_0_19_244
*1390 FILLER_0_19_26
*1391 FILLER_0_19_266
*1392 FILLER_0_19_278
*1393 FILLER_0_19_281
*1394 FILLER_0_19_293
*1395 FILLER_0_19_3
*1396 FILLER_0_19_305
*1397 FILLER_0_19_324
*1398 FILLER_0_19_332
*1399 FILLER_0_19_45
*1400 FILLER_0_19_49
*1401 FILLER_0_19_57
*1402 FILLER_0_19_82
*1403 FILLER_0_19_9
*1404 FILLER_0_19_94
*1405 FILLER_0_1_101
*1406 FILLER_0_1_113
*1407 FILLER_0_1_118
*1408 FILLER_0_1_136
*1409 FILLER_0_1_15
*1410 FILLER_0_1_155
*1411 FILLER_0_1_165
*1412 FILLER_0_1_169
*1413 FILLER_0_1_177
*1414 FILLER_0_1_204
*1415 FILLER_0_1_234
*1416 FILLER_0_1_27
*1417 FILLER_0_1_278
*1418 FILLER_0_1_3
*1419 FILLER_0_1_306
*1420 FILLER_0_1_328
*1421 FILLER_0_1_334
*1422 FILLER_0_1_39
*1423 FILLER_0_1_51
*1424 FILLER_0_1_55
*1425 FILLER_0_1_57
*1426 FILLER_0_20_103
*1427 FILLER_0_20_137
*1428 FILLER_0_20_149
*1429 FILLER_0_20_158
*1430 FILLER_0_20_167
*1431 FILLER_0_20_190
*1432 FILLER_0_20_202
*1433 FILLER_0_20_206
*1434 FILLER_0_20_236
*1435 FILLER_0_20_248
*1436 FILLER_0_20_26
*1437 FILLER_0_20_282
*1438 FILLER_0_20_294
*1439 FILLER_0_20_3
*1440 FILLER_0_20_306
*1441 FILLER_0_20_326
*1442 FILLER_0_20_54
*1443 FILLER_0_20_70
*1444 FILLER_0_20_81
*1445 FILLER_0_20_85
*1446 FILLER_0_20_9
*1447 FILLER_0_20_91
*1448 FILLER_0_21_100
*1449 FILLER_0_21_104
*1450 FILLER_0_21_113
*1451 FILLER_0_21_121
*1452 FILLER_0_21_131
*1453 FILLER_0_21_139
*1454 FILLER_0_21_147
*1455 FILLER_0_21_15
*1456 FILLER_0_21_165
*1457 FILLER_0_21_177
*1458 FILLER_0_21_202
*1459 FILLER_0_21_23
*1460 FILLER_0_21_245
*1461 FILLER_0_21_281
*1462 FILLER_0_21_3
*1463 FILLER_0_21_30
*1464 FILLER_0_21_309
*1465 FILLER_0_21_331
*1466 FILLER_0_21_35
*1467 FILLER_0_21_54
*1468 FILLER_0_22_113
*1469 FILLER_0_22_117
*1470 FILLER_0_22_125
*1471 FILLER_0_22_141
*1472 FILLER_0_22_145
*1473 FILLER_0_22_150
*1474 FILLER_0_22_156
*1475 FILLER_0_22_168
*1476 FILLER_0_22_176
*1477 FILLER_0_22_181
*1478 FILLER_0_22_185
*1479 FILLER_0_22_193
*1480 FILLER_0_22_197
*1481 FILLER_0_22_205
*1482 FILLER_0_22_223
*1483 FILLER_0_22_242
*1484 FILLER_0_22_250
*1485 FILLER_0_22_264
*1486 FILLER_0_22_27
*1487 FILLER_0_22_276
*1488 FILLER_0_22_288
*1489 FILLER_0_22_3
*1490 FILLER_0_22_305
*1491 FILLER_0_22_333
*1492 FILLER_0_22_36
*1493 FILLER_0_22_43
*1494 FILLER_0_22_61
*1495 FILLER_0_22_85
*1496 FILLER_0_23_106
*1497 FILLER_0_23_111
*1498 FILLER_0_23_116
*1499 FILLER_0_23_126
*1500 FILLER_0_23_144
*1501 FILLER_0_23_156
*1502 FILLER_0_23_185
*1503 FILLER_0_23_197
*1504 FILLER_0_23_209
*1505 FILLER_0_23_221
*1506 FILLER_0_23_225
*1507 FILLER_0_23_237
*1508 FILLER_0_23_260
*1509 FILLER_0_23_272
*1510 FILLER_0_23_281
*1511 FILLER_0_23_3
*1512 FILLER_0_23_30
*1513 FILLER_0_23_40
*1514 FILLER_0_23_49
*1515 FILLER_0_23_55
*1516 FILLER_0_23_57
*1517 FILLER_0_23_63
*1518 FILLER_0_23_7
*1519 FILLER_0_23_91
*1520 FILLER_0_24_114
*1521 FILLER_0_24_15
*1522 FILLER_0_24_152
*1523 FILLER_0_24_174
*1524 FILLER_0_24_191
*1525 FILLER_0_24_213
*1526 FILLER_0_24_225
*1527 FILLER_0_24_282
*1528 FILLER_0_24_29
*1529 FILLER_0_24_297
*1530 FILLER_0_24_3
*1531 FILLER_0_24_307
*1532 FILLER_0_24_309
*1533 FILLER_0_24_334
*1534 FILLER_0_24_43
*1535 FILLER_0_24_49
*1536 FILLER_0_24_57
*1537 FILLER_0_24_77
*1538 FILLER_0_24_85
*1539 FILLER_0_25_157
*1540 FILLER_0_25_165
*1541 FILLER_0_25_176
*1542 FILLER_0_25_188
*1543 FILLER_0_25_208
*1544 FILLER_0_25_220
*1545 FILLER_0_25_225
*1546 FILLER_0_25_262
*1547 FILLER_0_25_277
*1548 FILLER_0_25_281
*1549 FILLER_0_25_3
*1550 FILLER_0_25_307
*1551 FILLER_0_25_311
*1552 FILLER_0_25_334
*1553 FILLER_0_25_34
*1554 FILLER_0_25_47
*1555 FILLER_0_25_9
*1556 FILLER_0_26_11
*1557 FILLER_0_26_138
*1558 FILLER_0_26_156
*1559 FILLER_0_26_166
*1560 FILLER_0_26_178
*1561 FILLER_0_26_184
*1562 FILLER_0_26_223
*1563 FILLER_0_26_231
*1564 FILLER_0_26_258
*1565 FILLER_0_26_267
*1566 FILLER_0_26_289
*1567 FILLER_0_26_3
*1568 FILLER_0_26_306
*1569 FILLER_0_26_309
*1570 FILLER_0_26_334
*1571 FILLER_0_26_37
*1572 FILLER_0_26_46
*1573 FILLER_0_26_83
*1574 FILLER_0_27_118
*1575 FILLER_0_27_135
*1576 FILLER_0_27_155
*1577 FILLER_0_27_159
*1578 FILLER_0_27_166
*1579 FILLER_0_27_222
*1580 FILLER_0_27_225
*1581 FILLER_0_27_231
*1582 FILLER_0_27_254
*1583 FILLER_0_27_276
*1584 FILLER_0_27_281
*1585 FILLER_0_27_3
*1586 FILLER_0_27_320
*1587 FILLER_0_27_55
*1588 FILLER_0_27_95
*1589 FILLER_0_28_110
*1590 FILLER_0_28_171
*1591 FILLER_0_28_183
*1592 FILLER_0_28_191
*1593 FILLER_0_28_210
*1594 FILLER_0_28_230
*1595 FILLER_0_28_234
*1596 FILLER_0_28_250
*1597 FILLER_0_28_261
*1598 FILLER_0_28_269
*1599 FILLER_0_28_275
*1600 FILLER_0_28_29
*1601 FILLER_0_28_297
*1602 FILLER_0_28_3
*1603 FILLER_0_28_301
*1604 FILLER_0_28_319
*1605 FILLER_0_28_334
*1606 FILLER_0_28_77
*1607 FILLER_0_29_180
*1608 FILLER_0_29_189
*1609 FILLER_0_29_197
*1610 FILLER_0_29_222
*1611 FILLER_0_29_236
*1612 FILLER_0_29_259
*1613 FILLER_0_29_265
*1614 FILLER_0_29_293
*1615 FILLER_0_29_3
*1616 FILLER_0_29_34
*1617 FILLER_0_2_15
*1618 FILLER_0_2_162
*1619 FILLER_0_2_166
*1620 FILLER_0_2_195
*1621 FILLER_0_2_229
*1622 FILLER_0_2_251
*1623 FILLER_0_2_262
*1624 FILLER_0_2_268
*1625 FILLER_0_2_27
*1626 FILLER_0_2_285
*1627 FILLER_0_2_29
*1628 FILLER_0_2_3
*1629 FILLER_0_2_328
*1630 FILLER_0_2_334
*1631 FILLER_0_2_41
*1632 FILLER_0_2_53
*1633 FILLER_0_2_85
*1634 FILLER_0_2_91
*1635 FILLER_0_30_194
*1636 FILLER_0_30_203
*1637 FILLER_0_30_211
*1638 FILLER_0_30_217
*1639 FILLER_0_30_229
*1640 FILLER_0_30_26
*1641 FILLER_0_30_267
*1642 FILLER_0_30_279
*1643 FILLER_0_30_283
*1644 FILLER_0_30_3
*1645 FILLER_0_30_306
*1646 FILLER_0_30_309
*1647 FILLER_0_30_332
*1648 FILLER_0_30_36
*1649 FILLER_0_30_8
*1650 FILLER_0_31_113
*1651 FILLER_0_31_166
*1652 FILLER_0_31_190
*1653 FILLER_0_31_212
*1654 FILLER_0_31_218
*1655 FILLER_0_31_234
*1656 FILLER_0_31_279
*1657 FILLER_0_31_297
*1658 FILLER_0_31_3
*1659 FILLER_0_31_308
*1660 FILLER_0_31_334
*1661 FILLER_0_31_38
*1662 FILLER_0_32_161
*1663 FILLER_0_32_229
*1664 FILLER_0_32_241
*1665 FILLER_0_32_250
*1666 FILLER_0_32_262
*1667 FILLER_0_32_284
*1668 FILLER_0_32_29
*1669 FILLER_0_32_3
*1670 FILLER_0_32_325
*1671 FILLER_0_32_94
*1672 FILLER_0_33_113
*1673 FILLER_0_33_178
*1674 FILLER_0_33_221
*1675 FILLER_0_33_225
*1676 FILLER_0_33_237
*1677 FILLER_0_33_243
*1678 FILLER_0_33_249
*1679 FILLER_0_33_258
*1680 FILLER_0_33_26
*1681 FILLER_0_33_275
*1682 FILLER_0_33_279
*1683 FILLER_0_33_281
*1684 FILLER_0_33_293
*1685 FILLER_0_33_3
*1686 FILLER_0_33_301
*1687 FILLER_0_33_331
*1688 FILLER_0_33_36
*1689 FILLER_0_33_57
*1690 FILLER_0_34_195
*1691 FILLER_0_34_200
*1692 FILLER_0_34_226
*1693 FILLER_0_34_238
*1694 FILLER_0_34_250
*1695 FILLER_0_34_261
*1696 FILLER_0_34_273
*1697 FILLER_0_34_287
*1698 FILLER_0_34_29
*1699 FILLER_0_34_294
*1700 FILLER_0_34_298
*1701 FILLER_0_34_3
*1702 FILLER_0_34_309
*1703 FILLER_0_34_323
*1704 FILLER_0_34_332
*1705 FILLER_0_34_38
*1706 FILLER_0_34_85
*1707 FILLER_0_35_113
*1708 FILLER_0_35_198
*1709 FILLER_0_35_22
*1710 FILLER_0_35_223
*1711 FILLER_0_35_235
*1712 FILLER_0_35_267
*1713 FILLER_0_35_278
*1714 FILLER_0_35_281
*1715 FILLER_0_35_290
*1716 FILLER_0_35_3
*1717 FILLER_0_35_30
*1718 FILLER_0_35_333
*1719 FILLER_0_36_194
*1720 FILLER_0_36_219
*1721 FILLER_0_36_24
*1722 FILLER_0_36_277
*1723 FILLER_0_36_299
*1724 FILLER_0_36_309
*1725 FILLER_0_36_34
*1726 FILLER_0_36_6
*1727 FILLER_0_36_85
*1728 FILLER_0_37_222
*1729 FILLER_0_37_241
*1730 FILLER_0_37_313
*1731 FILLER_0_37_333
*1732 FILLER_0_37_54
*1733 FILLER_0_37_57
*1734 FILLER_0_37_81
*1735 FILLER_0_37_89
*1736 FILLER_0_38_250
*1737 FILLER_0_38_289
*1738 FILLER_0_38_293
*1739 FILLER_0_38_296
*1740 FILLER_0_38_3
*1741 FILLER_0_3_113
*1742 FILLER_0_3_131
*1743 FILLER_0_3_137
*1744 FILLER_0_3_15
*1745 FILLER_0_3_163
*1746 FILLER_0_3_167
*1747 FILLER_0_3_169
*1748 FILLER_0_3_212
*1749 FILLER_0_3_234
*1750 FILLER_0_3_268
*1751 FILLER_0_3_27
*1752 FILLER_0_3_3
*1753 FILLER_0_3_305
*1754 FILLER_0_3_332
*1755 FILLER_0_3_39
*1756 FILLER_0_3_51
*1757 FILLER_0_3_55
*1758 FILLER_0_3_73
*1759 FILLER_0_3_98
*1760 FILLER_0_4_134
*1761 FILLER_0_4_141
*1762 FILLER_0_4_15
*1763 FILLER_0_4_152
*1764 FILLER_0_4_161
*1765 FILLER_0_4_165
*1766 FILLER_0_4_190
*1767 FILLER_0_4_205
*1768 FILLER_0_4_213
*1769 FILLER_0_4_24
*1770 FILLER_0_4_240
*1771 FILLER_0_4_269
*1772 FILLER_0_4_275
*1773 FILLER_0_4_29
*1774 FILLER_0_4_3
*1775 FILLER_0_4_301
*1776 FILLER_0_4_307
*1777 FILLER_0_4_309
*1778 FILLER_0_4_313
*1779 FILLER_0_4_330
*1780 FILLER_0_4_334
*1781 FILLER_0_4_41
*1782 FILLER_0_4_53
*1783 FILLER_0_4_77
*1784 FILLER_0_5_11
*1785 FILLER_0_5_113