*SPEF "ieee 1481-1999"
*DESIGN "tt_um_sanojn_ttrpg_dice"
*DATE "11:11:11 Fri 11 11, 1111"
*VENDOR "OpenRCX"
*PROGRAM "Parallel Extraction"
*VERSION "1.0"
*DESIGN_FLOW "NAME_SCOPE LOCAL" "PIN_CAP NONE"
*DIVIDER /
*DELIMITER :
*BUS_DELIMITER []
*T_UNIT 1 NS
*C_UNIT 1 PF
*R_UNIT 1 OHM
*L_UNIT 1 HENRY

*NAME_MAP
*3 clk
*4 ena
*5 rst_n
*6 ui_in[0]
*7 ui_in[1]
*8 ui_in[2]
*9 ui_in[3]
*10 ui_in[4]
*11 ui_in[5]
*12 ui_in[6]
*13 ui_in[7]
*14 uio_in[0]
*15 uio_in[1]
*16 uio_in[2]
*17 uio_in[3]
*18 uio_in[4]
*19 uio_in[5]
*20 uio_in[6]
*21 uio_in[7]
*22 uio_oe[0]
*23 uio_oe[1]
*24 net20
*25 net29
*26 net30
*27 net21
*28 net22
*29 net23
*30 uio_out[0]
*31 net24
*32 net25
*33 uio_out[3]
*34 uio_out[4]
*35 net26
*36 net27
*37 net28
*38 uo_out[0]
*39 uo_out[1]
*40 uo_out[2]
*41 uo_out[3]
*42 uo_out[4]
*43 uo_out[5]
*44 uo_out[6]
*45 uo_out[7]
*46 Btn100_deb\.button
*47 Btn100_deb\.button_d
*48 Btn100_deb\.debounced
*49 Btn100_deb\.rst_n
*50 Btn100_deb\.state\[0\]
*51 Btn100_deb\.state\[1\]
*52 Btn100_deb\.state\[2\]
*53 Btn100_deb\.tick
*54 Btn10_deb\.button
*55 Btn10_deb\.button_d
*56 Btn10_deb\.debounced
*57 Btn10_deb\.state\[0\]
*58 Btn10_deb\.state\[1\]
*59 Btn10_deb\.state\[2\]
*60 Btn12_deb\.button
*61 Btn12_deb\.button_d
*62 Btn12_deb\.debounced
*63 Btn12_deb\.state\[0\]
*64 Btn12_deb\.state\[1\]
*65 Btn12_deb\.state\[2\]
*66 Btn20_deb\.button
*67 Btn20_deb\.button_d
*68 Btn20_deb\.debounced
*69 Btn20_deb\.state\[0\]
*70 Btn20_deb\.state\[1\]
*71 Btn20_deb\.state\[2\]
*72 Btn4_deb\.button
*73 Btn4_deb\.button_d
*74 Btn4_deb\.debounced
*75 Btn4_deb\.state\[0\]
*76 Btn4_deb\.state\[1\]
*77 Btn4_deb\.state\[2\]
*78 Btn6_deb\.button
*79 Btn6_deb\.button_d
*80 Btn6_deb\.debounced
*81 Btn6_deb\.state\[0\]
*82 Btn6_deb\.state\[1\]
*83 Btn6_deb\.state\[2\]
*84 Btn7_deb\.button
*85 Btn7_deb\.button_d
*86 Btn7_deb\.debounced
*87 Btn7_deb\.state\[0\]
*88 Btn7_deb\.state\[1\]
*89 Btn7_deb\.state\[2\]
*90 IOctrl\[0\]
*91 IOctrl\[1\]
*92 IOctrl\[2\]
*93 IOctrl\[3\]
*94 IOctrl\[4\]
*95 IOctrl\[5\]
*96 IOctrl\[6\]
*97 IOctrl\[7\]
*98 _0000_
*99 _0001_
*100 _0002_
*101 _0003_
*102 _0004_
*103 _0005_
*104 _0006_
*105 _0007_
*106 _0008_
*107 _0009_
*108 _0010_
*109 _0011_
*110 _0012_
*111 _0013_
*112 _0014_
*113 _0015_
*114 _0016_
*115 _0017_
*116 _0018_
*117 _0019_
*118 _0020_
*119 _0021_
*120 _0022_
*121 _0023_
*122 _0024_
*123 _0025_
*124 _0026_
*125 _0027_
*126 _0028_
*127 _0029_
*128 _0030_
*129 _0031_
*130 _0032_
*131 _0033_
*132 _0034_
*133 _0035_
*134 _0036_
*135 _0037_
*136 _0038_
*137 _0039_
*138 _0040_
*139 _0041_
*140 _0042_
*141 _0043_
*142 _0044_
*143 _0045_
*144 _0046_
*145 _0047_
*146 _0048_
*147 _0049_
*148 _0050_
*149 _0051_
*150 _0052_
*151 _0053_
*152 _0054_
*153 _0055_
*154 _0058_
*155 _0059_
*156 _0060_
*157 _0061_
*158 _0062_
*159 _0063_
*160 _0064_
*161 _0065_
*162 _0066_
*163 _0067_
*164 _0068_
*165 _0069_
*166 _0070_
*167 _0071_
*168 _0072_
*169 _0073_
*170 _0074_
*171 _0075_
*172 _0076_
*173 _0077_
*174 _0078_
*175 _0079_
*176 _0080_
*177 _0081_
*178 _0082_
*179 _0083_
*180 _0084_
*181 _0085_
*182 _0086_
*183 _0087_
*184 _0088_
*185 _0089_
*186 _0090_
*187 _0091_
*188 _0092_
*189 _0093_
*190 _0094_
*191 _0095_
*192 _0096_
*193 _0097_
*194 _0098_
*195 _0099_
*196 _0100_
*197 _0101_
*198 _0102_
*199 _0103_
*200 _0104_
*201 _0105_
*202 _0106_
*203 _0107_
*204 _0108_
*205 _0109_
*206 _0110_
*207 _0111_
*208 _0112_
*209 _0113_
*210 _0114_
*211 _0115_
*212 _0116_
*213 _0117_
*214 _0118_
*215 _0119_
*216 _0120_
*217 _0121_
*218 _0122_
*219 _0123_
*220 _0124_
*221 _0125_
*222 _0126_
*223 _0127_
*224 _0128_
*225 _0129_
*226 _0130_
*227 _0131_
*228 _0132_
*229 _0133_
*230 _0134_
*231 _0135_
*232 _0136_
*233 _0137_
*234 _0138_
*235 _0139_
*236 _0140_
*237 _0141_
*238 _0142_
*239 _0143_
*240 _0144_
*241 _0145_
*242 _0146_
*243 _0147_
*244 _0148_
*245 _0149_
*246 _0150_
*247 _0151_
*248 _0152_
*249 _0153_
*250 _0154_
*251 _0155_
*252 _0156_
*253 _0157_
*254 _0158_
*255 _0159_
*256 _0160_
*257 _0161_
*258 _0162_
*259 _0163_
*260 _0164_
*261 _0165_
*262 _0166_
*263 _0167_
*264 _0168_
*265 _0169_
*266 _0170_
*267 _0171_
*268 _0172_
*269 _0173_
*270 _0174_
*271 _0175_
*272 _0176_
*273 _0177_
*274 _0178_
*275 _0179_
*276 _0180_
*277 _0181_
*278 _0182_
*279 _0183_
*280 _0184_
*281 _0185_
*282 _0186_
*283 _0187_
*284 _0188_
*285 _0189_
*286 _0190_
*287 _0191_
*288 _0192_
*289 _0193_
*290 _0194_
*291 _0195_
*292 _0196_
*293 _0197_
*294 _0198_
*295 _0199_
*296 _0200_
*297 _0201_
*298 _0202_
*299 _0203_
*300 _0204_
*301 _0205_
*302 _0206_
*303 _0207_
*304 _0208_
*305 _0209_
*306 _0210_
*307 _0211_
*308 _0212_
*309 _0213_
*310 _0214_
*311 _0215_
*312 _0216_
*313 _0217_
*314 _0218_
*315 _0219_
*316 _0220_
*317 _0221_
*318 _0222_
*319 _0223_
*320 _0224_
*321 _0225_
*322 _0226_
*323 _0227_
*324 _0228_
*325 _0229_
*326 _0230_
*327 _0231_
*328 _0232_
*329 _0233_
*330 _0234_
*331 _0235_
*332 _0236_
*333 _0237_
*334 _0238_
*335 _0239_
*336 _0240_
*337 _0241_
*338 _0242_
*339 _0243_
*340 _0244_
*341 _0245_
*342 _0246_
*343 _0247_
*344 _0248_
*345 _0249_
*346 _0250_
*347 _0251_
*348 _0252_
*349 _0253_
*350 _0254_
*351 _0255_
*352 _0256_
*353 _0257_
*354 _0258_
*355 _0259_
*356 _0260_
*357 _0261_
*358 _0262_
*359 _0263_
*360 _0264_
*361 _0265_
*362 _0266_
*363 _0267_
*364 _0268_
*365 _0269_
*366 _0270_
*367 _0271_
*368 _0272_
*369 _0273_
*370 _0274_
*371 _0275_
*372 _0276_
*373 _0277_
*374 _0278_
*375 _0279_
*376 _0280_
*377 _0281_
*378 _0282_
*379 _0283_
*380 _0284_
*381 _0285_
*382 _0286_
*383 _0287_
*384 _0288_
*385 _0289_
*386 _0290_
*387 _0291_
*388 _0292_
*389 _0293_
*390 _0294_
*391 _0295_
*392 _0296_
*393 _0297_
*394 _0298_
*395 _0299_
*396 _0300_
*397 _0301_
*398 _0302_
*399 _0303_
*400 _0304_
*401 _0305_
*402 _0306_
*403 _0307_
*404 _0308_
*405 _0309_
*406 _0310_
*407 _0311_
*408 _0312_
*409 _0313_
*410 _0314_
*411 _0315_
*412 _0316_
*413 _0317_
*414 _0318_
*415 _0319_
*416 _0320_
*417 _0321_
*418 _0322_
*419 _0323_
*420 _0324_
*421 _0325_
*422 _0326_
*423 _0327_
*424 _0328_
*425 _0329_
*426 _0330_
*427 _0331_
*428 _0332_
*429 _0333_
*430 _0334_
*431 _0335_
*432 _0336_
*433 _0337_
*434 _0338_
*435 _0339_
*436 _0340_
*437 _0341_
*438 _0342_
*439 _0343_
*440 _0344_
*441 _0345_
*442 _0346_
*443 _0347_
*444 _0348_
*445 _0349_
*446 _0350_
*447 _0351_
*448 _0352_
*449 _0353_
*450 _0354_
*451 _0355_
*452 _0356_
*453 _0357_
*454 _0358_
*455 _0359_
*456 _0360_
*457 _0361_
*458 _0362_
*459 _0363_
*460 _0364_
*461 _0365_
*462 _0366_
*463 _0367_
*464 _0368_
*465 _0369_
*466 _0370_
*467 _0371_
*468 _0372_
*469 _0373_
*470 _0374_
*471 _0375_
*472 _0376_
*473 _0377_
*474 _0378_
*475 _0379_
*476 _0380_
*477 _0381_
*478 _0382_
*479 _0383_
*480 _0384_
*481 _0385_
*482 _0386_
*483 _0387_
*484 _0388_
*485 _0389_
*486 _0390_
*487 _0391_
*488 _0392_
*489 _0393_
*490 _0394_
*491 _0395_
*492 _0396_
*493 _0397_
*494 _0398_
*495 _0399_
*496 _0400_
*497 _0401_
*498 _0402_
*499 _0403_
*500 _0404_
*501 _0405_
*502 _0406_
*503 _0407_
*504 _0408_
*505 _0409_
*506 _0410_
*507 _0411_
*508 _0412_
*509 _0413_
*510 _0414_
*511 _0415_
*512 _0416_
*513 _0417_
*514 _0418_
*515 _0419_
*516 _0420_
*517 _0421_
*518 _0422_
*519 _0423_
*520 _0424_
*521 _0425_
*522 _0426_
*523 _0427_
*524 _0428_
*525 _0429_
*526 _0430_
*527 _0431_
*528 _0432_
*529 _0433_
*530 _0434_
*531 _0435_
*532 _0436_
*533 _0437_
*534 _0439_
*535 _0440_
*536 _0441_
*537 _0443_
*538 _0444_
*539 _0445_
*540 _0447_
*541 _0448_
*542 _0449_
*543 _0450_
*544 _0451_
*545 _0452_
*546 _0453_
*547 _0454_
*548 _0455_
*549 _0456_
*550 _0457_
*551 _0458_
*552 _0459_
*553 _0460_
*554 _0461_
*555 _0462_
*556 _0463_
*557 _0464_
*558 _0465_
*559 _0466_
*560 _0467_
*561 _0468_
*562 _0469_
*563 _0470_
*564 _0471_
*565 _0472_
*566 _0473_
*567 _0474_
*568 _0475_
*569 _0476_
*570 _0477_
*571 _0478_
*572 _0479_
*573 _0480_
*574 _0481_
*575 _0482_
*576 _0483_
*577 _0484_
*578 _0485_
*579 _0486_
*580 _0487_
*581 _0488_
*582 _0489_
*583 _0490_
*584 _0491_
*585 _0492_
*586 _0493_
*587 _0494_
*588 _0495_
*589 _0496_
*590 _0497_
*591 _0498_
*592 _0499_
*593 _0500_
*594 _0501_
*595 _0502_
*596 _0503_
*597 _0504_
*598 _0505_
*599 _0506_
*600 _0507_
*601 _0508_
*602 _0509_
*603 _0510_
*604 _0511_
*605 _0512_
*606 _0513_
*607 _0514_
*608 _0515_
*609 _0516_
*610 _0517_
*611 _0518_
*612 _0519_
*613 _0520_
*614 _0521_
*615 _0522_
*616 _0523_
*617 _0524_
*618 _0525_
*619 _0526_
*620 _0527_
*621 _0528_
*622 _0529_
*623 _0530_
*624 _0531_
*625 _0532_
*626 _0533_
*627 _0534_
*628 _0535_
*629 _0536_
*630 _0537_
*631 _0538_
*632 _0539_
*633 _0540_
*634 _0541_
*635 _0542_
*636 _0543_
*637 _0544_
*638 _0545_
*639 _0546_
*640 _0547_
*641 _0548_
*642 _0549_
*643 _0550_
*644 _0551_
*645 _0552_
*646 _0553_
*647 _0554_
*648 _0555_
*649 _0556_
*650 _0557_
*651 _0558_
*652 _0559_
*653 _0560_
*654 _0561_
*655 _0562_
*656 _0563_
*657 _0564_
*658 _0565_
*659 _0566_
*660 _0567_
*661 _0568_
*662 _0569_
*663 _0570_
*664 _0571_
*665 _0572_
*666 _0573_
*667 _0574_
*668 _0575_
*669 _0576_
*670 _0577_
*671 _0578_
*672 _0579_
*673 _0580_
*674 _0581_
*675 _0582_
*676 _0583_
*677 _0584_
*678 _0585_
*679 _0586_
*680 _0587_
*681 _0588_
*682 _0589_
*683 _0590_
*684 _0591_
*685 _0592_
*686 _0593_
*687 _0594_
*688 _0595_
*689 _0596_
*690 _0597_
*691 _0598_
*692 _0599_
*693 _0600_
*694 _0601_
*695 _0602_
*696 _0603_
*697 _0604_
*698 _0605_
*699 _0606_
*700 _0607_
*701 _0608_
*702 _0609_
*703 _0610_
*704 _0611_
*705 _0612_
*706 _0613_
*707 _0614_
*708 _0615_
*709 _0616_
*710 _0617_
*711 _0618_
*712 _0619_
*713 _0620_
*714 _0621_
*715 _0622_
*716 _0623_
*717 _0624_
*718 _0625_
*719 _0626_
*720 _0627_
*721 _0628_
*722 _0629_
*723 _0630_
*724 _0631_
*725 _0632_
*726 _0633_
*727 _0634_
*728 _0635_
*729 _0636_
*730 _0637_
*731 _0638_
*732 _0639_
*733 _0640_
*734 _0641_
*735 _0642_
*736 _0643_
*737 _0644_
*738 _0645_
*739 _0646_
*740 _0647_
*741 _0648_
*742 _0649_
*743 _0650_
*744 _0651_
*745 _0652_
*746 _0653_
*747 _0654_
*748 _0655_
*749 _0656_
*750 _0657_
*751 _0658_
*752 _0659_
*753 _0660_
*754 _0661_
*755 _0662_
*756 _0663_
*757 _0664_
*758 _0665_
*759 _0666_
*760 _0667_
*761 _0668_
*762 _0669_
*763 _0670_
*764 _0671_
*765 _0672_
*766 _0673_
*767 _0674_
*768 _0675_
*769 _0676_
*770 _0677_
*771 _0678_
*772 _0679_
*773 _0680_
*774 _0681_
*775 _0682_
*776 _0683_
*777 _0684_
*778 _0685_
*779 _0686_
*780 _0687_
*781 _0688_
*782 _0689_
*783 _0690_
*784 _0691_
*785 _0692_
*786 _0693_
*787 _0694_
*788 _0695_
*789 _0696_
*790 _0697_
*791 _0698_
*792 _0699_
*793 _0700_
*794 _0701_
*795 _0702_
*796 _0703_
*797 _0704_
*798 _0705_
*799 _0706_
*800 _0707_
*801 _0708_
*802 _0709_
*803 _0710_
*804 _0711_
*805 _0712_
*806 clknet_0__0431_
*807 clknet_0__0432_
*808 clknet_0__0433_
*809 clknet_0__0434_
*810 clknet_0__0435_
*811 clknet_0__0437_
*812 clknet_0__0439_
*813 clknet_0__0440_
*814 clknet_0__0444_
*815 clknet_0_clk
*816 clknet_1_0__leaf__0431_
*817 clknet_1_0__leaf__0432_
*818 clknet_1_0__leaf__0433_
*819 clknet_1_0__leaf__0434_
*820 clknet_1_0__leaf__0435_
*821 clknet_1_0__leaf__0437_
*822 clknet_1_0__leaf__0439_
*823 clknet_1_0__leaf__0440_
*824 clknet_1_0__leaf__0444_
*825 clknet_1_1__leaf__0431_
*826 clknet_1_1__leaf__0432_
*827 clknet_1_1__leaf__0433_
*828 clknet_1_1__leaf__0434_
*829 clknet_1_1__leaf__0435_
*830 clknet_1_1__leaf__0437_
*831 clknet_1_1__leaf__0439_
*832 clknet_1_1__leaf__0440_
*833 clknet_1_1__leaf__0444_
*834 clknet_4_0_0_clk
*835 clknet_4_10_0_clk
*836 clknet_4_11_0_clk
*837 clknet_4_12_0_clk
*838 clknet_4_13_0_clk
*839 clknet_4_14_0_clk
*840 clknet_4_15_0_clk
*841 clknet_4_1_0_clk
*842 clknet_4_2_0_clk
*843 clknet_4_3_0_clk
*844 clknet_4_4_0_clk
*845 clknet_4_5_0_clk
*846 clknet_4_6_0_clk
*847 clknet_4_7_0_clk
*848 clknet_4_8_0_clk
*849 clknet_4_9_0_clk
*850 digit10\[0\]
*851 digit10\[1\]
*852 digit10\[2\]
*853 digit10\[3\]
*854 digit1\[0\]
*855 digit1\[1\]
*856 digit1\[2\]
*857 digit1\[3\]
*858 i2c\.addr\[0\]
*859 i2c\.addr\[1\]
*860 i2c\.addr\[2\]
*861 i2c\.addr\[3\]
*862 i2c\.cmd_start
*863 i2c\.cmd_stop
*864 i2c\.dbyte\[0\]
*865 i2c\.dbyte\[1\]
*866 i2c\.dbyte\[2\]
*867 i2c\.dbyte\[3\]
*868 i2c\.dbyte\[4\]
*869 i2c\.dbyte\[5\]
*870 i2c\.dbyte\[6\]
*871 i2c\.dbyte\[7\]
*872 i2c\.last_event\[0\]
*873 i2c\.last_event\[3\]
*874 i2c\.pull_sda
*875 i2c\.scl_r\[0\]
*876 i2c\.scl_r\[1\]
*877 i2c\.scl_r\[2\]
*878 i2c\.scl_r\[3\]
*879 i2c\.sda_r\[0\]
*880 i2c\.sda_r\[1\]
*881 i2c\.sda_r\[2\]
*882 i2c\.sda_r\[3\]
*883 i2c\.wen
*884 io_oe
*885 mem\[0\]\[0\]
*886 mem\[0\]\[1\]
*887 mem\[0\]\[2\]
*888 mem\[0\]\[3\]
*889 mem\[0\]\[4\]
*890 mem\[0\]\[5\]
*891 mem\[0\]\[6\]
*892 mem\[0\]\[7\]
*893 mem\[1\]\[0\]
*894 mem\[1\]\[1\]
*895 mem\[1\]\[2\]
*896 mem\[1\]\[3\]
*897 mem\[1\]\[4\]
*898 mem\[1\]\[5\]
*899 mem\[1\]\[6\]
*900 mem\[1\]\[7\]
*901 mem\[2\]\[0\]
*902 mem\[2\]\[1\]
*903 mem\[2\]\[2\]
*904 mem\[2\]\[3\]
*905 mem\[2\]\[4\]
*906 mem\[2\]\[5\]
*907 mem\[2\]\[6\]
*908 mem\[2\]\[7\]
*909 mem\[3\]\[0\]
*910 mem\[3\]\[1\]
*911 mem\[3\]\[2\]
*912 mem\[3\]\[3\]
*913 mem\[3\]\[4\]
*914 mem\[3\]\[5\]
*915 mem\[3\]\[6\]
*916 mem\[3\]\[7\]
*917 mem\[4\]\[0\]
*918 mem\[4\]\[1\]
*919 mem\[4\]\[2\]
*920 mem\[4\]\[3\]
*921 mem\[4\]\[4\]
*922 mem\[4\]\[5\]
*923 mem\[4\]\[6\]
*924 mem\[4\]\[7\]
*925 mem\[5\]\[0\]
*926 mem\[5\]\[1\]
*927 mem\[5\]\[2\]
*928 mem\[5\]\[3\]
*929 mem\[5\]\[4\]
*930 mem\[5\]\[5\]
*931 mem\[5\]\[6\]
*932 mem\[5\]\[7\]
*933 mem\[6\]\[0\]
*934 mem\[6\]\[1\]
*935 mem\[6\]\[2\]
*936 mem\[6\]\[3\]
*937 mem\[6\]\[4\]
*938 mem\[6\]\[5\]
*939 mem\[6\]\[6\]
*940 mem\[6\]\[7\]
*941 mem\[7\]\[0\]
*942 mem\[7\]\[1\]
*943 mem\[7\]\[2\]
*944 mem\[7\]\[3\]
*945 mem\[7\]\[4\]
*946 mem\[7\]\[5\]
*947 mem\[7\]\[6\]
*948 mem\[7\]\[7\]
*949 net1
*950 net10
*951 net100
*952 net101
*953 net102
*954 net103
*955 net104
*956 net105
*957 net106
*958 net107
*959 net108
*960 net109
*961 net11
*962 net110
*963 net111
*964 net112
*965 net113
*966 net114
*967 net115
*968 net116
*969 net117
*970 net118
*971 net119
*972 net12
*973 net120
*974 net121
*975 net122
*976 net123
*977 net124
*978 net125
*979 net126
*980 net127
*981 net128
*982 net129
*983 net13
*984 net130
*985 net131
*986 net132
*987 net133
*988 net134
*989 net135
*990 net136
*991 net137
*992 net138
*993 net139
*994 net14
*995 net140
*996 net141
*997 net142
*998 net143
*999 net144
*1000 net145
*1001 net146
*1002 net147
*1003 net148
*1004 net149
*1005 net15
*1006 net150
*1007 net151
*1008 net152
*1009 net153
*1010 net154
*1011 net155
*1012 net156
*1013 net157
*1014 net158
*1015 net159
*1016 net16
*1017 net160
*1018 net161
*1019 net162
*1020 net163
*1021 net164
*1022 net165
*1023 net166
*1024 net167
*1025 net168
*1026 net169
*1027 net17
*1028 net170
*1029 net171
*1030 net172
*1031 net173
*1032 net174
*1033 net175
*1034 net18
*1035 net19
*1036 net2
*1037 net3
*1038 net31
*1039 net32
*1040 net33
*1041 net34
*1042 net35
*1043 net36
*1044 net37
*1045 net38
*1046 net39
*1047 net4
*1048 net40
*1049 net41
*1050 net42
*1051 net43
*1052 net44
*1053 net45
*1054 net46
*1055 net47
*1056 net48
*1057 net49
*1058 net5
*1059 net50
*1060 net51
*1061 net52
*1062 net53
*1063 net54
*1064 net55
*1065 net56
*1066 net57
*1067 net58
*1068 net59
*1069 net6
*1070 net60
*1071 net61
*1072 net62
*1073 net63
*1074 net64
*1075 net65
*1076 net66
*1077 net67
*1078 net68
*1079 net69
*1080 net7
*1081 net70
*1082 net71
*1083 net72
*1084 net73
*1085 net74
*1086 net75
*1087 net76
*1088 net77
*1089 net78
*1090 net79
*1091 net8
*1092 net80
*1093 net81
*1094 net82
*1095 net83
*1096 net84
*1097 net85
*1098 net86
*1099 net87
*1100 net88
*1101 net89
*1102 net9
*1103 net90
*1104 net91
*1105 net92
*1106 net93
*1107 net94
*1108 net95
*1109 net96
*1110 net97
*1111 net98
*1112 net99
*1113 prescaler\[0\]
*1114 prescaler\[1\]
*1115 prescaler\[2\]
*1116 prescaler\[3\]
*1117 prescaler\[4\]
*1118 prescaler\[5\]
*1119 prescaler\[6\]
*1120 prescaler\[7\]
*1121 prescaler\[8\]
*1122 prescaler\[9\]
*1123 pwm\[0\]
*1124 pwm\[1\]
*1125 pwm\[2\]
*1126 pwm\[3\]
*1127 pwm\[4\]
*1128 pwm\[5\]
*1129 pwm\[6\]
*1130 pwm\[7\]
*1131 rst_sync1
*1132 tick
*1133 timeoutCounter\[0\]
*1134 timeoutCounter\[1\]
*1135 timeoutCounter\[2\]
*1136 timeoutCounter\[3\]
*1137 timeoutCounter\[4\]
*1138 timeoutCounter\[5\]
*1139 timeoutCounter\[6\]
*1140 timeoutCounter\[7\]
*1141 ANTENNA_1
*1142 ANTENNA_2
*1143 ANTENNA_3
*1144 FILLER_0_0_108
*1145 FILLER_0_0_121
*1146 FILLER_0_0_138
*1147 FILLER_0_0_15
*1148 FILLER_0_0_158
*1149 FILLER_0_0_166
*1150 FILLER_0_0_197
*1151 FILLER_0_0_209
*1152 FILLER_0_0_221
*1153 FILLER_0_0_225
*1154 FILLER_0_0_237
*1155 FILLER_0_0_251
*1156 FILLER_0_0_27
*1157 FILLER_0_0_277
*1158 FILLER_0_0_281
*1159 FILLER_0_0_29
*1160 FILLER_0_0_3
*1161 FILLER_0_0_303
*1162 FILLER_0_0_307
*1163 FILLER_0_0_309
*1164 FILLER_0_0_321
*1165 FILLER_0_0_333
*1166 FILLER_0_0_41
*1167 FILLER_0_0_57
*1168 FILLER_0_0_63
*1169 FILLER_0_0_85
*1170 FILLER_0_0_96
*1171 FILLER_0_10_118
*1172 FILLER_0_10_139
*1173 FILLER_0_10_169
*1174 FILLER_0_10_193
*1175 FILLER_0_10_205
*1176 FILLER_0_10_256
*1177 FILLER_0_10_29
*1178 FILLER_0_10_3
*1179 FILLER_0_10_301
*1180 FILLER_0_10_306
*1181 FILLER_0_10_309
*1182 FILLER_0_10_334
*1183 FILLER_0_10_48
*1184 FILLER_0_10_55
*1185 FILLER_0_10_79
*1186 FILLER_0_10_83
*1187 FILLER_0_11_15
*1188 FILLER_0_11_152
*1189 FILLER_0_11_164
*1190 FILLER_0_11_169
*1191 FILLER_0_11_181
*1192 FILLER_0_11_187
*1193 FILLER_0_11_196
*1194 FILLER_0_11_208
*1195 FILLER_0_11_212
*1196 FILLER_0_11_22
*1197 FILLER_0_11_250
*1198 FILLER_0_11_259
*1199 FILLER_0_11_26
*1200 FILLER_0_11_284
*1201 FILLER_0_11_3
*1202 FILLER_0_11_31
*1203 FILLER_0_11_332
*1204 FILLER_0_11_39
*1205 FILLER_0_11_90
*1206 FILLER_0_12_11
*1207 FILLER_0_12_113
*1208 FILLER_0_12_125
*1209 FILLER_0_12_131
*1210 FILLER_0_12_150
*1211 FILLER_0_12_162
*1212 FILLER_0_12_184
*1213 FILLER_0_12_206
*1214 FILLER_0_12_218
*1215 FILLER_0_12_226
*1216 FILLER_0_12_261
*1217 FILLER_0_12_269
*1218 FILLER_0_12_29
*1219 FILLER_0_12_3
*1220 FILLER_0_12_309
*1221 FILLER_0_12_332
*1222 FILLER_0_12_41
*1223 FILLER_0_12_52
*1224 FILLER_0_12_69
*1225 FILLER_0_12_81
*1226 FILLER_0_12_85
*1227 FILLER_0_13_104
*1228 FILLER_0_13_113
*1229 FILLER_0_13_155
*1230 FILLER_0_13_164
*1231 FILLER_0_13_169
*1232 FILLER_0_13_175
*1233 FILLER_0_13_217
*1234 FILLER_0_13_223
*1235 FILLER_0_13_234
*1236 FILLER_0_13_261
*1237 FILLER_0_13_272
*1238 FILLER_0_13_290
*1239 FILLER_0_13_3
*1240 FILLER_0_13_303
*1241 FILLER_0_13_309
*1242 FILLER_0_13_328
*1243 FILLER_0_13_334
*1244 FILLER_0_13_45
*1245 FILLER_0_13_52
*1246 FILLER_0_13_57
*1247 FILLER_0_13_69
*1248 FILLER_0_13_81
*1249 FILLER_0_14_105
*1250 FILLER_0_14_119
*1251 FILLER_0_14_174
*1252 FILLER_0_14_213
*1253 FILLER_0_14_234
*1254 FILLER_0_14_27
*1255 FILLER_0_14_278
*1256 FILLER_0_14_290
*1257 FILLER_0_14_3
*1258 FILLER_0_14_309
*1259 FILLER_0_14_330
*1260 FILLER_0_14_334
*1261 FILLER_0_14_44
*1262 FILLER_0_14_50
*1263 FILLER_0_14_68
*1264 FILLER_0_14_83
*1265 FILLER_0_14_99
*1266 FILLER_0_15_129
*1267 FILLER_0_15_138
*1268 FILLER_0_15_169
*1269 FILLER_0_15_193
*1270 FILLER_0_15_203
*1271 FILLER_0_15_215
*1272 FILLER_0_15_257
*1273 FILLER_0_15_263
*1274 FILLER_0_15_279
*1275 FILLER_0_15_281
*1276 FILLER_0_15_293
*1277 FILLER_0_15_3
*1278 FILLER_0_15_31
*1279 FILLER_0_15_331
*1280 FILLER_0_15_74
*1281 FILLER_0_15_98
*1282 FILLER_0_16_111
*1283 FILLER_0_16_120
*1284 FILLER_0_16_139
*1285 FILLER_0_16_141
*1286 FILLER_0_16_149
*1287 FILLER_0_16_157
*1288 FILLER_0_16_168
*1289 FILLER_0_16_178
*1290 FILLER_0_16_190
*1291 FILLER_0_16_197
*1292 FILLER_0_16_209
*1293 FILLER_0_16_221
*1294 FILLER_0_16_233
*1295 FILLER_0_16_245
*1296 FILLER_0_16_251
*1297 FILLER_0_16_253
*1298 FILLER_0_16_265
*1299 FILLER_0_16_296
*1300 FILLER_0_16_3
*1301 FILLER_0_16_304
*1302 FILLER_0_16_333
*1303 FILLER_0_16_42
*1304 FILLER_0_16_54
*1305 FILLER_0_16_66
*1306 FILLER_0_16_85
*1307 FILLER_0_16_9
*1308 FILLER_0_16_99
*1309 FILLER_0_17_103
*1310 FILLER_0_17_111
*1311 FILLER_0_17_113
*1312 FILLER_0_17_125
*1313 FILLER_0_17_143
*1314 FILLER_0_17_153
*1315 FILLER_0_17_159
*1316 FILLER_0_17_164
*1317 FILLER_0_17_169
*1318 FILLER_0_17_173
*1319 FILLER_0_17_196
*1320 FILLER_0_17_212
*1321 FILLER_0_17_222
*1322 FILLER_0_17_225
*1323 FILLER_0_17_237
*1324 FILLER_0_17_249
*1325 FILLER_0_17_261
*1326 FILLER_0_17_269
*1327 FILLER_0_17_297
*1328 FILLER_0_17_3
*1329 FILLER_0_17_309
*1330 FILLER_0_17_332
*1331 FILLER_0_17_34
*1332 FILLER_0_17_54
*1333 FILLER_0_17_57
*1334 FILLER_0_17_63
*1335 FILLER_0_17_91
*1336 FILLER_0_18_106
*1337 FILLER_0_18_114
*1338 FILLER_0_18_130
*1339 FILLER_0_18_15
*1340 FILLER_0_18_154
*1341 FILLER_0_18_160
*1342 FILLER_0_18_195
*1343 FILLER_0_18_23
*1344 FILLER_0_18_234
*1345 FILLER_0_18_251
*1346 FILLER_0_18_258
*1347 FILLER_0_18_262
*1348 FILLER_0_18_27
*1349 FILLER_0_18_270
*1350 FILLER_0_18_298
*1351 FILLER_0_18_3
*1352 FILLER_0_18_306
*1353 FILLER_0_18_309
*1354 FILLER_0_18_321
*1355 FILLER_0_18_42
*1356 FILLER_0_18_65
*1357 FILLER_0_18_85
*1358 FILLER_0_18_95
*1359 FILLER_0_19_103
*1360 FILLER_0_19_126
*1361 FILLER_0_19_132
*1362 FILLER_0_19_142
*1363 FILLER_0_19_159
*1364 FILLER_0_19_189
*1365 FILLER_0_19_211
*1366 FILLER_0_19_218
*1367 FILLER_0_19_241
*1368 FILLER_0_19_262
*1369 FILLER_0_19_272
*1370 FILLER_0_19_279
*1371 FILLER_0_19_28
*1372 FILLER_0_19_281
*1373 FILLER_0_19_293
*1374 FILLER_0_19_3
*1375 FILLER_0_19_305
*1376 FILLER_0_19_327
*1377 FILLER_0_19_42
*1378 FILLER_0_19_50
*1379 FILLER_0_19_57
*1380 FILLER_0_19_67
*1381 FILLER_0_19_77
*1382 FILLER_0_19_82
*1383 FILLER_0_19_94
*1384 FILLER_0_1_113
*1385 FILLER_0_1_119
*1386 FILLER_0_1_15
*1387 FILLER_0_1_160
*1388 FILLER_0_1_169
*1389 FILLER_0_1_208
*1390 FILLER_0_1_222
*1391 FILLER_0_1_27
*1392 FILLER_0_1_274
*1393 FILLER_0_1_281
*1394 FILLER_0_1_3
*1395 FILLER_0_1_318
*1396 FILLER_0_1_330
*1397 FILLER_0_1_334
*1398 FILLER_0_1_39
*1399 FILLER_0_1_47
*1400 FILLER_0_1_73
*1401 FILLER_0_20_103
*1402 FILLER_0_20_11
*1403 FILLER_0_20_111
*1404 FILLER_0_20_118
*1405 FILLER_0_20_130
*1406 FILLER_0_20_138
*1407 FILLER_0_20_157
*1408 FILLER_0_20_165
*1409 FILLER_0_20_204
*1410 FILLER_0_20_216
*1411 FILLER_0_20_224
*1412 FILLER_0_20_253
*1413 FILLER_0_20_277
*1414 FILLER_0_20_289
*1415 FILLER_0_20_3
*1416 FILLER_0_20_301
*1417 FILLER_0_20_333
*1418 FILLER_0_20_50
*1419 FILLER_0_20_58
*1420 FILLER_0_20_64
*1421 FILLER_0_20_72
*1422 FILLER_0_20_81
*1423 FILLER_0_20_91
*1424 FILLER_0_21_11
*1425 FILLER_0_21_111
*1426 FILLER_0_21_113
*1427 FILLER_0_21_131
*1428 FILLER_0_21_143
*1429 FILLER_0_21_153
*1430 FILLER_0_21_165
*1431 FILLER_0_21_169
*1432 FILLER_0_21_17
*1433 FILLER_0_21_187
*1434 FILLER_0_21_199
*1435 FILLER_0_21_21
*1436 FILLER_0_21_211
*1437 FILLER_0_21_223
*1438 FILLER_0_21_236
*1439 FILLER_0_21_240
*1440 FILLER_0_21_249
*1441 FILLER_0_21_257
*1442 FILLER_0_21_275
*1443 FILLER_0_21_279
*1444 FILLER_0_21_281
*1445 FILLER_0_21_287
*1446 FILLER_0_21_3
*1447 FILLER_0_21_326
*1448 FILLER_0_21_44
*1449 FILLER_0_21_54
*1450 FILLER_0_21_73
*1451 FILLER_0_22_106
*1452 FILLER_0_22_112
*1453 FILLER_0_22_130
*1454 FILLER_0_22_138
*1455 FILLER_0_22_141
*1456 FILLER_0_22_148
*1457 FILLER_0_22_160
*1458 FILLER_0_22_168
*1459 FILLER_0_22_179
*1460 FILLER_0_22_192
*1461 FILLER_0_22_215
*1462 FILLER_0_22_22
*1463 FILLER_0_22_225
*1464 FILLER_0_22_234
*1465 FILLER_0_22_242
*1466 FILLER_0_22_250
*1467 FILLER_0_22_274
*1468 FILLER_0_22_282
*1469 FILLER_0_22_3
*1470 FILLER_0_22_37
*1471 FILLER_0_22_41
*1472 FILLER_0_22_60
*1473 FILLER_0_22_75
*1474 FILLER_0_22_85
*1475 FILLER_0_23_102
*1476 FILLER_0_23_108
*1477 FILLER_0_23_113
*1478 FILLER_0_23_133
*1479 FILLER_0_23_141
*1480 FILLER_0_23_147
*1481 FILLER_0_23_162
*1482 FILLER_0_23_192
*1483 FILLER_0_23_225
*1484 FILLER_0_23_23
*1485 FILLER_0_23_242
*1486 FILLER_0_23_265
*1487 FILLER_0_23_297
*1488 FILLER_0_23_3
*1489 FILLER_0_23_308
*1490 FILLER_0_23_319
*1491 FILLER_0_23_33
*1492 FILLER_0_23_331
*1493 FILLER_0_23_54
*1494 FILLER_0_23_70
*1495 FILLER_0_23_88
*1496 FILLER_0_24_103
*1497 FILLER_0_24_112
*1498 FILLER_0_24_121
*1499 FILLER_0_24_130
*1500 FILLER_0_24_138
*1501 FILLER_0_24_157
*1502 FILLER_0_24_172
*1503 FILLER_0_24_180
*1504 FILLER_0_24_188
*1505 FILLER_0_24_197
*1506 FILLER_0_24_205
*1507 FILLER_0_24_213
*1508 FILLER_0_24_236
*1509 FILLER_0_24_245
*1510 FILLER_0_24_25
*1511 FILLER_0_24_250
*1512 FILLER_0_24_253
*1513 FILLER_0_24_265
*1514 FILLER_0_24_290
*1515 FILLER_0_24_3
*1516 FILLER_0_24_304
*1517 FILLER_0_24_330
*1518 FILLER_0_24_334
*1519 FILLER_0_24_37
*1520 FILLER_0_24_41
*1521 FILLER_0_24_67
*1522 FILLER_0_24_79
*1523 FILLER_0_24_83
*1524 FILLER_0_24_85
*1525 FILLER_0_24_97
*1526 FILLER_0_25_11
*1527 FILLER_0_25_125
*1528 FILLER_0_25_137
*1529 FILLER_0_25_16
*1530 FILLER_0_25_164
*1531 FILLER_0_25_169
*1532 FILLER_0_25_181
*1533 FILLER_0_25_185
*1534 FILLER_0_25_194
*1535 FILLER_0_25_210
*1536 FILLER_0_25_222
*1537 FILLER_0_25_225
*1538 FILLER_0_25_246
*1539 FILLER_0_25_258
*1540 FILLER_0_25_266
*1541 FILLER_0_25_279
*1542 FILLER_0_25_28
*1543 FILLER_0_25_287
*1544 FILLER_0_25_295
*1545 FILLER_0_25_3
*1546 FILLER_0_25_333
*1547 FILLER_0_25_50
*1548 FILLER_0_25_62
*1549 FILLER_0_25_75
*1550 FILLER_0_25_84
*1551 FILLER_0_26_136
*1552 FILLER_0_26_147
*1553 FILLER_0_26_159
*1554 FILLER_0_26_171
*1555 FILLER_0_26_179
*1556 FILLER_0_26_213
*1557 FILLER_0_26_224
*1558 FILLER_0_26_250
*1559 FILLER_0_26_26
*1560 FILLER_0_26_261
*1561 FILLER_0_26_265
*1562 FILLER_0_26_3
*1563 FILLER_0_26_331
*1564 FILLER_0_26_46
*1565 FILLER_0_26_88
*1566 FILLER_0_26_9
*1567 FILLER_0_27_111
*1568 FILLER_0_27_147
*1569 FILLER_0_27_151
*1570 FILLER_0_27_172
*1571 FILLER_0_27_178
*1572 FILLER_0_27_258
*1573 FILLER_0_27_270
*1574 FILLER_0_27_278
*1575 FILLER_0_27_281
*1576 FILLER_0_27_3
*1577 FILLER_0_27_305
*1578 FILLER_0_27_314
*1579 FILLER_0_27_332
*1580 FILLER_0_27_60
*1581 FILLER_0_28_11
*1582 FILLER_0_28_110
*1583 FILLER_0_28_160
*1584 FILLER_0_28_172
*1585 FILLER_0_28_194
*1586 FILLER_0_28_212
*1587 FILLER_0_28_251
*1588 FILLER_0_28_253
*1589 FILLER_0_28_259
*1590 FILLER_0_28_276
*1591 FILLER_0_28_294
*1592 FILLER_0_28_3
*1593 FILLER_0_28_307
*1594 FILLER_0_28_327
*1595 FILLER_0_28_37
*1596 FILLER_0_28_51
*1597 FILLER_0_28_93
*1598 FILLER_0_29_11
*1599 FILLER_0_29_174
*1600 FILLER_0_29_178
*1601 FILLER_0_29_186
*1602 FILLER_0_29_203
*1603 FILLER_0_29_210
*1604 FILLER_0_29_22
*1605 FILLER_0_29_252
*1606 FILLER_0_29_256
*1607 FILLER_0_29_3
*1608 FILLER_0_29_332
*1609 FILLER_0_29_34
*1610 FILLER_0_29_38
*1611 FILLER_0_29_43
*1612 FILLER_0_29_55
*1613 FILLER_0_29_57
*1614 FILLER_0_29_80
*1615 FILLER_0_2_115
*1616 FILLER_0_2_15
*1617 FILLER_0_2_162
*1618 FILLER_0_2_214
*1619 FILLER_0_2_265
*1620 FILLER_0_2_27
*1621 FILLER_0_2_29
*1622 FILLER_0_2_3
*1623 FILLER_0_2_309
*1624 FILLER_0_2_321
*1625 FILLER_0_2_41
*1626 FILLER_0_2_80
*1627 FILLER_0_30_11
*1628 FILLER_0_30_168
*1629 FILLER_0_30_179
*1630 FILLER_0_30_194
*1631 FILLER_0_30_245
*1632 FILLER_0_30_251
*1633 FILLER_0_30_269
*1634 FILLER_0_30_29
*1635 FILLER_0_30_295
*1636 FILLER_0_30_3
*1637 FILLER_0_30_309
*1638 FILLER_0_30_331
*1639 FILLER_0_30_37
*1640 FILLER_0_30_55
*1641 FILLER_0_30_59
*1642 FILLER_0_30_78
*1643 FILLER_0_31_11
*1644 FILLER_0_31_113
*1645 FILLER_0_31_169
*1646 FILLER_0_31_188
*1647 FILLER_0_31_215
*1648 FILLER_0_31_223
*1649 FILLER_0_31_225
*1650 FILLER_0_31_230
*1651 FILLER_0_31_261
*1652 FILLER_0_31_28
*1653 FILLER_0_31_289
*1654 FILLER_0_31_3
*1655 FILLER_0_31_332
*1656 FILLER_0_32_173
*1657 FILLER_0_32_190
*1658 FILLER_0_32_197
*1659 FILLER_0_32_209
*1660 FILLER_0_32_221
*1661 FILLER_0_32_227
*1662 FILLER_0_32_25
*1663 FILLER_0_32_269
*1664 FILLER_0_32_288
*1665 FILLER_0_32_29
*1666 FILLER_0_32_3
*1667 FILLER_0_32_328
*1668 FILLER_0_32_334
*1669 FILLER_0_33_167
*1670 FILLER_0_33_184
*1671 FILLER_0_33_218
*1672 FILLER_0_33_225
*1673 FILLER_0_33_263
*1674 FILLER_0_33_281
*1675 FILLER_0_33_289
*1676 FILLER_0_33_3
*1677 FILLER_0_33_300
*1678 FILLER_0_33_43
*1679 FILLER_0_33_63
*1680 FILLER_0_33_7
*1681 FILLER_0_34_11
*1682 FILLER_0_34_141
*1683 FILLER_0_34_251
*1684 FILLER_0_34_278
*1685 FILLER_0_34_3
*1686 FILLER_0_34_330
*1687 FILLER_0_34_334
*1688 FILLER_0_34_34
*1689 FILLER_0_34_46
*1690 FILLER_0_35_11
*1691 FILLER_0_35_151
*1692 FILLER_0_35_205
*1693 FILLER_0_35_241
*1694 FILLER_0_35_259
*1695 FILLER_0_35_271
*1696 FILLER_0_35_279
*1697 FILLER_0_35_28
*1698 FILLER_0_35_281
*1699 FILLER_0_35_289
*1700 FILLER_0_35_3
*1701 FILLER_0_35_332
*1702 FILLER_0_35_49
*1703 FILLER_0_35_57
*1704 FILLER_0_35_64
*1705 FILLER_0_36_151
*1706 FILLER_0_36_234
*1707 FILLER_0_36_242
*1708 FILLER_0_36_259
*1709 FILLER_0_36_264
*1710 FILLER_0_36_27
*1711 FILLER_0_36_282
*1712 FILLER_0_36_294
*1713 FILLER_0_36_306
*1714 FILLER_0_36_309
*1715 FILLER_0_36_331
*1716 FILLER_0_36_45
*1717 FILLER_0_36_6
*1718 FILLER_0_36_63
*1719 FILLER_0_36_85
*1720 FILLER_0_37_113
*1721 FILLER_0_37_225
*1722 FILLER_0_37_253
*1723 FILLER_0_37_281
*1724 FILLER_0_37_3
*1725 FILLER_0_37_329
*1726 FILLER_0_37_57
*1727 FILLER_0_38_189
*1728 FILLER_0_38_222
*1729 FILLER_0_38_234
*1730 FILLER_0_38_248
*1731 FILLER_0_38_256
*1732 FILLER_0_38_260
*1733 FILLER_0_38_264
*1734 FILLER_0_38_278
*1735 FILLER_0_38_287
*1736 FILLER_0_38_294
*1737 FILLER_0_38_298
*1738 FILLER_0_38_3
*1739 FILLER_0_38_302
*1740 FILLER_0_38_312
*1741 FILLER_0_38_322
*1742 FILLER_0_38_329
*1743 FILLER_0_38_57
*1744 FILLER_0_3_110
*1745 FILLER_0_3_121
*1746 FILLER_0_3_15
*1747 FILLER_0_3_165
*1748 FILLER_0_3_169
*1749 FILLER_0_3_27
*1750 FILLER_0_3_278
*1751 FILLER_0_3_281
*1752 FILLER_0_3_299
*1753 FILLER_0_3_3
*1754 FILLER_0_3_311
*1755 FILLER_0_3_322
*1756 FILLER_0_3_326
*1757 FILLER_0_3_39
*1758 FILLER_0_3_51
*1759 FILLER_0_3_73
*1760 FILLER_0_4_106
*1761 FILLER_0_4_118
*1762 FILLER_0_4_126
*1763 FILLER_0_4_141
*1764 FILLER_0_4_15
*1765 FILLER_0_4_154
*1766 FILLER_0_4_161
*1767 FILLER_0_4_173
*1768 FILLER_0_4_182
*1769 FILLER_0_4_200
*1770 FILLER_0_4_262
*1771 FILLER_0_4_27
*1772 FILLER_0_4_29
*1773 FILLER_0_4_3
*1774 FILLER_0_4_300
*1775 FILLER_0_4_328
*1776 FILLER_0_4_334
*1777 FILLER_0_4_41
*1778 FILLER_0_4_45
*1779 FILLER_0_4_81
*1780 FILLER_0_5_129
*1781 FILLER_0_5_15
*1782 FILLER_0_5_151
*1783 FILLER_0_5_178
*1784 FILLER_0_5_202
*1785 FILLER_0_5_210
*1786 FILLER_0_5_234
*1787 FILLER_0_5_243
*1788 FILLER_0_5_27
*1789 FILLER_0_5_275