*SPEF "ieee 1481-1999"
*DESIGN "tt_um_wokwi_395054508867644417"
*DATE "17:57:07 Monday April 15, 2024"
*VENDOR "The OpenROAD Project"
*PROGRAM "OpenROAD"
*VERSION "0889970d1790a2617e69f253221b8bd7626e51dc"
*DESIGN_FLOW "NAME_SCOPE LOCAL" "PIN_CAP NONE"
*DIVIDER /
*DELIMITER :
*BUS_DELIMITER []
*T_UNIT 1 NS
*C_UNIT 1 PF
*R_UNIT 1 OHM
*L_UNIT 1 HENRY

*NAME_MAP
*3 clk
*4 ena
*5 rst_n
*6 ui_in[0]
*7 ui_in[1]
*8 ui_in[2]
*9 ui_in[3]
*10 ui_in[4]
*11 ui_in[5]
*12 ui_in[6]
*13 ui_in[7]
*14 uio_in[0]
*15 uio_in[1]
*16 uio_in[2]
*17 uio_in[3]
*18 uio_in[4]
*19 uio_in[5]
*20 uio_in[6]
*21 uio_in[7]
*22 uio_oe[0]
*23 uio_oe[1]
*24 uio_oe[2]
*25 uio_oe[3]
*26 uio_oe[4]
*27 uio_oe[5]
*28 net13
*29 net14
*30 uio_out[0]
*31 uio_out[1]
*32 uio_out[2]
*33 uio_out[3]
*34 uio_out[4]
*35 uio_out[5]
*36 net15
*37 net16
*38 uo_out[0]
*39 uo_out[1]
*40 uo_out[2]
*41 uo_out[3]
*42 net17
*43 net18
*44 net19
*45 net20
*46 _00_
*47 _01_
*48 _02_
*49 _03_
*50 _04_
*51 _05_
*52 _06_
*53 _07_
*54 clknet_0_clk
*55 clknet_1_0__leaf_clk
*56 clknet_1_1__leaf_clk
*57 flop1\.d
*58 flop1\.notq
*59 flop1\.q
*60 flop2\.d
*61 flop2\.notq
*62 flop2\.q
*63 net1
*64 net10
*65 net11
*66 net12
*67 net2
*68 net3
*69 net4
*70 net5
*71 net6
*72 net7
*73 net8
*74 net9
*75 or1\.out
*76 or2\.out
*77 xor1\.out
*78 xor4\.out
*79 xor6\.out
*80 FILLER_0_0_109
*81 FILLER_0_0_113
*82 FILLER_0_0_125
*83 FILLER_0_0_137
*84 FILLER_0_0_141
*85 FILLER_0_0_15
*86 FILLER_0_0_153
*87 FILLER_0_0_165
*88 FILLER_0_0_169
*89 FILLER_0_0_181
*90 FILLER_0_0_193
*91 FILLER_0_0_197
*92 FILLER_0_0_209
*93 FILLER_0_0_221
*94 FILLER_0_0_225
*95 FILLER_0_0_237
*96 FILLER_0_0_249
*97 FILLER_0_0_253
*98 FILLER_0_0_265
*99 FILLER_0_0_27
*100 FILLER_0_0_277
*101 FILLER_0_0_281
*102 FILLER_0_0_29
*103 FILLER_0_0_293
*104 FILLER_0_0_3
*105 FILLER_0_0_305
*106 FILLER_0_0_309
*107 FILLER_0_0_321
*108 FILLER_0_0_333
*109 FILLER_0_0_41
*110 FILLER_0_0_53
*111 FILLER_0_0_57
*112 FILLER_0_0_69
*113 FILLER_0_0_81
*114 FILLER_0_0_85
*115 FILLER_0_0_97
*116 FILLER_0_10_109
*117 FILLER_0_10_121
*118 FILLER_0_10_133
*119 FILLER_0_10_139
*120 FILLER_0_10_141
*121 FILLER_0_10_15
*122 FILLER_0_10_153
*123 FILLER_0_10_165
*124 FILLER_0_10_177
*125 FILLER_0_10_189
*126 FILLER_0_10_195
*127 FILLER_0_10_197
*128 FILLER_0_10_209
*129 FILLER_0_10_221
*130 FILLER_0_10_233
*131 FILLER_0_10_245
*132 FILLER_0_10_251
*133 FILLER_0_10_253
*134 FILLER_0_10_265
*135 FILLER_0_10_27
*136 FILLER_0_10_277
*137 FILLER_0_10_289
*138 FILLER_0_10_29
*139 FILLER_0_10_3
*140 FILLER_0_10_301
*141 FILLER_0_10_307
*142 FILLER_0_10_309
*143 FILLER_0_10_321
*144 FILLER_0_10_333
*145 FILLER_0_10_41
*146 FILLER_0_10_53
*147 FILLER_0_10_65
*148 FILLER_0_10_77
*149 FILLER_0_10_83
*150 FILLER_0_10_85
*151 FILLER_0_10_97
*152 FILLER_0_11_105
*153 FILLER_0_11_111
*154 FILLER_0_11_113
*155 FILLER_0_11_125
*156 FILLER_0_11_137
*157 FILLER_0_11_149
*158 FILLER_0_11_15
*159 FILLER_0_11_161
*160 FILLER_0_11_167
*161 FILLER_0_11_169
*162 FILLER_0_11_181
*163 FILLER_0_11_193
*164 FILLER_0_11_205
*165 FILLER_0_11_217
*166 FILLER_0_11_223
*167 FILLER_0_11_225
*168 FILLER_0_11_237
*169 FILLER_0_11_249
*170 FILLER_0_11_261
*171 FILLER_0_11_27
*172 FILLER_0_11_273
*173 FILLER_0_11_279
*174 FILLER_0_11_281
*175 FILLER_0_11_293
*176 FILLER_0_11_3
*177 FILLER_0_11_305
*178 FILLER_0_11_317
*179 FILLER_0_11_329
*180 FILLER_0_11_39
*181 FILLER_0_11_51
*182 FILLER_0_11_55
*183 FILLER_0_11_57
*184 FILLER_0_11_69
*185 FILLER_0_11_81
*186 FILLER_0_11_93
*187 FILLER_0_12_109
*188 FILLER_0_12_121
*189 FILLER_0_12_133
*190 FILLER_0_12_139
*191 FILLER_0_12_141
*192 FILLER_0_12_15
*193 FILLER_0_12_153
*194 FILLER_0_12_165
*195 FILLER_0_12_177
*196 FILLER_0_12_189
*197 FILLER_0_12_195
*198 FILLER_0_12_197
*199 FILLER_0_12_209
*200 FILLER_0_12_221
*201 FILLER_0_12_233
*202 FILLER_0_12_245
*203 FILLER_0_12_251
*204 FILLER_0_12_253
*205 FILLER_0_12_265
*206 FILLER_0_12_27
*207 FILLER_0_12_277
*208 FILLER_0_12_289
*209 FILLER_0_12_29
*210 FILLER_0_12_3
*211 FILLER_0_12_301
*212 FILLER_0_12_307
*213 FILLER_0_12_309
*214 FILLER_0_12_321
*215 FILLER_0_12_333
*216 FILLER_0_12_41
*217 FILLER_0_12_53
*218 FILLER_0_12_65
*219 FILLER_0_12_77
*220 FILLER_0_12_83
*221 FILLER_0_12_85
*222 FILLER_0_12_97
*223 FILLER_0_13_105
*224 FILLER_0_13_111
*225 FILLER_0_13_113
*226 FILLER_0_13_125
*227 FILLER_0_13_137
*228 FILLER_0_13_149
*229 FILLER_0_13_15
*230 FILLER_0_13_161
*231 FILLER_0_13_167
*232 FILLER_0_13_169
*233 FILLER_0_13_181
*234 FILLER_0_13_193
*235 FILLER_0_13_205
*236 FILLER_0_13_217
*237 FILLER_0_13_223
*238 FILLER_0_13_225
*239 FILLER_0_13_237
*240 FILLER_0_13_249
*241 FILLER_0_13_261
*242 FILLER_0_13_27
*243 FILLER_0_13_273
*244 FILLER_0_13_279
*245 FILLER_0_13_281
*246 FILLER_0_13_293
*247 FILLER_0_13_3
*248 FILLER_0_13_305
*249 FILLER_0_13_317
*250 FILLER_0_13_329
*251 FILLER_0_13_39
*252 FILLER_0_13_51
*253 FILLER_0_13_55
*254 FILLER_0_13_57
*255 FILLER_0_13_69
*256 FILLER_0_13_81
*257 FILLER_0_13_93
*258 FILLER_0_14_109
*259 FILLER_0_14_121
*260 FILLER_0_14_133
*261 FILLER_0_14_139
*262 FILLER_0_14_141
*263 FILLER_0_14_15
*264 FILLER_0_14_153
*265 FILLER_0_14_165
*266 FILLER_0_14_177
*267 FILLER_0_14_189
*268 FILLER_0_14_195
*269 FILLER_0_14_197
*270 FILLER_0_14_209
*271 FILLER_0_14_221
*272 FILLER_0_14_233
*273 FILLER_0_14_245
*274 FILLER_0_14_251
*275 FILLER_0_14_253
*276 FILLER_0_14_265
*277 FILLER_0_14_27
*278 FILLER_0_14_277
*279 FILLER_0_14_289
*280 FILLER_0_14_29
*281 FILLER_0_14_3
*282 FILLER_0_14_301
*283 FILLER_0_14_307
*284 FILLER_0_14_309
*285 FILLER_0_14_321
*286 FILLER_0_14_333
*287 FILLER_0_14_41
*288 FILLER_0_14_53
*289 FILLER_0_14_65
*290 FILLER_0_14_77
*291 FILLER_0_14_83
*292 FILLER_0_14_85
*293 FILLER_0_14_97
*294 FILLER_0_15_105
*295 FILLER_0_15_111
*296 FILLER_0_15_113
*297 FILLER_0_15_125
*298 FILLER_0_15_137
*299 FILLER_0_15_149
*300 FILLER_0_15_15
*301 FILLER_0_15_161
*302 FILLER_0_15_167
*303 FILLER_0_15_169
*304 FILLER_0_15_181
*305 FILLER_0_15_193
*306 FILLER_0_15_205
*307 FILLER_0_15_217
*308 FILLER_0_15_223
*309 FILLER_0_15_225
*310 FILLER_0_15_237
*311 FILLER_0_15_249
*312 FILLER_0_15_261
*313 FILLER_0_15_27
*314 FILLER_0_15_273
*315 FILLER_0_15_279
*316 FILLER_0_15_281
*317 FILLER_0_15_293
*318 FILLER_0_15_3
*319 FILLER_0_15_305
*320 FILLER_0_15_317
*321 FILLER_0_15_329
*322 FILLER_0_15_39
*323 FILLER_0_15_51
*324 FILLER_0_15_55
*325 FILLER_0_15_57
*326 FILLER_0_15_69
*327 FILLER_0_15_81
*328 FILLER_0_15_93
*329 FILLER_0_16_109
*330 FILLER_0_16_121
*331 FILLER_0_16_133
*332 FILLER_0_16_139
*333 FILLER_0_16_141
*334 FILLER_0_16_15
*335 FILLER_0_16_153
*336 FILLER_0_16_165
*337 FILLER_0_16_177
*338 FILLER_0_16_189
*339 FILLER_0_16_195
*340 FILLER_0_16_197
*341 FILLER_0_16_209
*342 FILLER_0_16_221
*343 FILLER_0_16_233
*344 FILLER_0_16_245
*345 FILLER_0_16_251
*346 FILLER_0_16_253
*347 FILLER_0_16_265
*348 FILLER_0_16_27
*349 FILLER_0_16_277
*350 FILLER_0_16_289
*351 FILLER_0_16_29
*352 FILLER_0_16_3
*353 FILLER_0_16_301
*354 FILLER_0_16_307
*355 FILLER_0_16_309
*356 FILLER_0_16_321
*357 FILLER_0_16_333
*358 FILLER_0_16_41
*359 FILLER_0_16_53
*360 FILLER_0_16_65
*361 FILLER_0_16_77
*362 FILLER_0_16_83
*363 FILLER_0_16_85
*364 FILLER_0_16_97
*365 FILLER_0_17_105
*366 FILLER_0_17_111
*367 FILLER_0_17_113
*368 FILLER_0_17_125
*369 FILLER_0_17_137
*370 FILLER_0_17_149
*371 FILLER_0_17_15
*372 FILLER_0_17_161
*373 FILLER_0_17_167
*374 FILLER_0_17_169
*375 FILLER_0_17_181
*376 FILLER_0_17_193
*377 FILLER_0_17_205
*378 FILLER_0_17_217
*379 FILLER_0_17_223
*380 FILLER_0_17_225
*381 FILLER_0_17_237
*382 FILLER_0_17_249
*383 FILLER_0_17_261
*384 FILLER_0_17_27
*385 FILLER_0_17_273
*386 FILLER_0_17_279
*387 FILLER_0_17_281
*388 FILLER_0_17_293
*389 FILLER_0_17_3
*390 FILLER_0_17_305
*391 FILLER_0_17_317
*392 FILLER_0_17_329
*393 FILLER_0_17_39
*394 FILLER_0_17_51
*395 FILLER_0_17_55
*396 FILLER_0_17_57
*397 FILLER_0_17_69
*398 FILLER_0_17_81
*399 FILLER_0_17_93
*400 FILLER_0_18_109
*401 FILLER_0_18_121
*402 FILLER_0_18_133
*403 FILLER_0_18_139
*404 FILLER_0_18_141
*405 FILLER_0_18_15
*406 FILLER_0_18_153
*407 FILLER_0_18_165
*408 FILLER_0_18_177
*409 FILLER_0_18_189
*410 FILLER_0_18_195
*411 FILLER_0_18_197
*412 FILLER_0_18_209
*413 FILLER_0_18_221
*414 FILLER_0_18_233
*415 FILLER_0_18_245
*416 FILLER_0_18_251
*417 FILLER_0_18_253
*418 FILLER_0_18_265
*419 FILLER_0_18_27
*420 FILLER_0_18_277
*421 FILLER_0_18_289
*422 FILLER_0_18_29
*423 FILLER_0_18_3
*424 FILLER_0_18_301
*425 FILLER_0_18_307
*426 FILLER_0_18_309
*427 FILLER_0_18_321
*428 FILLER_0_18_333
*429 FILLER_0_18_41
*430 FILLER_0_18_53
*431 FILLER_0_18_65
*432 FILLER_0_18_77
*433 FILLER_0_18_83
*434 FILLER_0_18_85
*435 FILLER_0_18_97
*436 FILLER_0_19_105
*437 FILLER_0_19_111
*438 FILLER_0_19_113
*439 FILLER_0_19_125
*440 FILLER_0_19_137
*441 FILLER_0_19_149
*442 FILLER_0_19_15
*443 FILLER_0_19_161
*444 FILLER_0_19_167
*445 FILLER_0_19_169
*446 FILLER_0_19_181
*447 FILLER_0_19_193
*448 FILLER_0_19_205
*449 FILLER_0_19_217
*450 FILLER_0_19_223
*451 FILLER_0_19_225
*452 FILLER_0_19_237
*453 FILLER_0_19_249
*454 FILLER_0_19_261
*455 FILLER_0_19_27
*456 FILLER_0_19_273
*457 FILLER_0_19_279
*458 FILLER_0_19_281
*459 FILLER_0_19_293
*460 FILLER_0_19_3
*461 FILLER_0_19_305
*462 FILLER_0_19_317
*463 FILLER_0_19_329
*464 FILLER_0_19_39
*465 FILLER_0_19_51
*466 FILLER_0_19_55
*467 FILLER_0_19_57
*468 FILLER_0_19_69
*469 FILLER_0_19_81
*470 FILLER_0_19_93
*471 FILLER_0_1_105
*472 FILLER_0_1_111
*473 FILLER_0_1_113
*474 FILLER_0_1_125
*475 FILLER_0_1_137
*476 FILLER_0_1_149
*477 FILLER_0_1_15
*478 FILLER_0_1_161
*479 FILLER_0_1_167
*480 FILLER_0_1_169
*481 FILLER_0_1_181
*482 FILLER_0_1_193
*483 FILLER_0_1_205
*484 FILLER_0_1_217
*485 FILLER_0_1_223
*486 FILLER_0_1_225
*487 FILLER_0_1_237
*488 FILLER_0_1_249
*489 FILLER_0_1_261
*490 FILLER_0_1_27
*491 FILLER_0_1_273
*492 FILLER_0_1_279
*493 FILLER_0_1_281
*494 FILLER_0_1_293
*495 FILLER_0_1_3
*496 FILLER_0_1_305
*497 FILLER_0_1_317
*498 FILLER_0_1_329
*499 FILLER_0_1_39
*500 FILLER_0_1_51
*501 FILLER_0_1_55
*502 FILLER_0_1_57
*503 FILLER_0_1_69
*504 FILLER_0_1_81
*505 FILLER_0_1_93
*506 FILLER_0_20_109
*507 FILLER_0_20_121
*508 FILLER_0_20_133
*509 FILLER_0_20_139
*510 FILLER_0_20_141
*511 FILLER_0_20_15
*512 FILLER_0_20_153
*513 FILLER_0_20_165
*514 FILLER_0_20_177
*515 FILLER_0_20_189
*516 FILLER_0_20_195
*517 FILLER_0_20_197
*518 FILLER_0_20_209
*519 FILLER_0_20_221
*520 FILLER_0_20_233
*521 FILLER_0_20_245
*522 FILLER_0_20_251
*523 FILLER_0_20_253
*524 FILLER_0_20_265
*525 FILLER_0_20_27
*526 FILLER_0_20_277
*527 FILLER_0_20_289
*528 FILLER_0_20_29
*529 FILLER_0_20_3
*530 FILLER_0_20_301
*531 FILLER_0_20_307
*532 FILLER_0_20_309
*533 FILLER_0_20_321
*534 FILLER_0_20_333
*535 FILLER_0_20_41
*536 FILLER_0_20_53
*537 FILLER_0_20_65
*538 FILLER_0_20_77
*539 FILLER_0_20_83
*540 FILLER_0_20_85
*541 FILLER_0_20_97
*542 FILLER_0_21_105
*543 FILLER_0_21_111
*544 FILLER_0_21_113
*545 FILLER_0_21_125
*546 FILLER_0_21_137
*547 FILLER_0_21_149
*548 FILLER_0_21_15
*549 FILLER_0_21_161
*550 FILLER_0_21_167
*551 FILLER_0_21_169
*552 FILLER_0_21_181
*553 FILLER_0_21_193
*554 FILLER_0_21_205
*555 FILLER_0_21_217
*556 FILLER_0_21_223
*557 FILLER_0_21_225
*558 FILLER_0_21_237
*559 FILLER_0_21_249
*560 FILLER_0_21_261
*561 FILLER_0_21_27
*562 FILLER_0_21_273
*563 FILLER_0_21_279
*564 FILLER_0_21_281
*565 FILLER_0_21_293
*566 FILLER_0_21_3
*567 FILLER_0_21_305
*568 FILLER_0_21_317
*569 FILLER_0_21_329
*570 FILLER_0_21_39
*571 FILLER_0_21_51
*572 FILLER_0_21_55
*573 FILLER_0_21_57
*574 FILLER_0_21_69
*575 FILLER_0_21_81
*576 FILLER_0_21_93
*577 FILLER_0_22_109
*578 FILLER_0_22_121
*579 FILLER_0_22_133
*580 FILLER_0_22_139
*581 FILLER_0_22_141
*582 FILLER_0_22_15
*583 FILLER_0_22_153
*584 FILLER_0_22_165
*585 FILLER_0_22_177
*586 FILLER_0_22_189
*587 FILLER_0_22_195
*588 FILLER_0_22_197
*589 FILLER_0_22_209
*590 FILLER_0_22_221
*591 FILLER_0_22_233
*592 FILLER_0_22_245
*593 FILLER_0_22_251
*594 FILLER_0_22_253
*595 FILLER_0_22_265
*596 FILLER_0_22_27
*597 FILLER_0_22_277
*598 FILLER_0_22_289
*599 FILLER_0_22_29
*600 FILLER_0_22_3
*601 FILLER_0_22_301
*602 FILLER_0_22_307
*603 FILLER_0_22_309
*604 FILLER_0_22_321
*605 FILLER_0_22_333
*606 FILLER_0_22_41
*607 FILLER_0_22_53
*608 FILLER_0_22_65
*609 FILLER_0_22_77
*610 FILLER_0_22_83
*611 FILLER_0_22_85
*612 FILLER_0_22_97
*613 FILLER_0_23_105
*614 FILLER_0_23_111
*615 FILLER_0_23_113
*616 FILLER_0_23_125
*617 FILLER_0_23_137
*618 FILLER_0_23_149
*619 FILLER_0_23_15
*620 FILLER_0_23_161
*621 FILLER_0_23_167
*622 FILLER_0_23_169
*623 FILLER_0_23_181
*624 FILLER_0_23_193
*625 FILLER_0_23_205
*626 FILLER_0_23_217
*627 FILLER_0_23_223
*628 FILLER_0_23_225
*629 FILLER_0_23_237
*630 FILLER_0_23_249
*631 FILLER_0_23_261
*632 FILLER_0_23_27
*633 FILLER_0_23_273
*634 FILLER_0_23_279
*635 FILLER_0_23_281
*636 FILLER_0_23_293
*637 FILLER_0_23_3
*638 FILLER_0_23_305
*639 FILLER_0_23_317
*640 FILLER_0_23_329
*641 FILLER_0_23_39
*642 FILLER_0_23_51
*643 FILLER_0_23_55
*644 FILLER_0_23_57
*645 FILLER_0_23_69
*646 FILLER_0_23_81
*647 FILLER_0_23_93
*648 FILLER_0_24_109
*649 FILLER_0_24_121
*650 FILLER_0_24_133
*651 FILLER_0_24_139
*652 FILLER_0_24_141
*653 FILLER_0_24_15
*654 FILLER_0_24_153
*655 FILLER_0_24_165
*656 FILLER_0_24_177
*657 FILLER_0_24_189
*658 FILLER_0_24_195
*659 FILLER_0_24_197
*660 FILLER_0_24_209
*661 FILLER_0_24_221
*662 FILLER_0_24_233
*663 FILLER_0_24_245
*664 FILLER_0_24_251
*665 FILLER_0_24_253
*666 FILLER_0_24_265
*667 FILLER_0_24_27
*668 FILLER_0_24_277
*669 FILLER_0_24_289
*670 FILLER_0_24_29
*671 FILLER_0_24_3
*672 FILLER_0_24_301
*673 FILLER_0_24_307
*674 FILLER_0_24_309
*675 FILLER_0_24_321
*676 FILLER_0_24_333
*677 FILLER_0_24_41
*678 FILLER_0_24_53
*679 FILLER_0_24_65
*680 FILLER_0_24_77
*681 FILLER_0_24_83
*682 FILLER_0_24_85
*683 FILLER_0_24_97
*684 FILLER_0_25_105
*685 FILLER_0_25_111
*686 FILLER_0_25_113
*687 FILLER_0_25_125
*688 FILLER_0_25_137
*689 FILLER_0_25_149
*690 FILLER_0_25_15
*691 FILLER_0_25_161
*692 FILLER_0_25_167
*693 FILLER_0_25_169
*694 FILLER_0_25_181
*695 FILLER_0_25_193
*696 FILLER_0_25_205
*697 FILLER_0_25_217
*698 FILLER_0_25_223
*699 FILLER_0_25_225
*700 FILLER_0_25_237
*701 FILLER_0_25_249
*702 FILLER_0_25_261
*703 FILLER_0_25_27
*704 FILLER_0_25_273
*705 FILLER_0_25_279
*706 FILLER_0_25_281
*707 FILLER_0_25_293
*708 FILLER_0_25_3
*709 FILLER_0_25_305
*710 FILLER_0_25_317
*711 FILLER_0_25_329
*712 FILLER_0_25_39
*713 FILLER_0_25_51
*714 FILLER_0_25_55
*715 FILLER_0_25_57
*716 FILLER_0_25_69
*717 FILLER_0_25_81
*718 FILLER_0_25_93
*719 FILLER_0_26_109
*720 FILLER_0_26_121
*721 FILLER_0_26_133
*722 FILLER_0_26_139
*723 FILLER_0_26_141
*724 FILLER_0_26_15
*725 FILLER_0_26_153
*726 FILLER_0_26_165
*727 FILLER_0_26_177
*728 FILLER_0_26_189
*729 FILLER_0_26_195
*730 FILLER_0_26_197
*731 FILLER_0_26_209
*732 FILLER_0_26_221
*733 FILLER_0_26_233
*734 FILLER_0_26_245
*735 FILLER_0_26_251
*736 FILLER_0_26_253
*737 FILLER_0_26_265
*738 FILLER_0_26_27
*739 FILLER_0_26_277
*740 FILLER_0_26_289
*741 FILLER_0_26_29
*742 FILLER_0_26_3
*743 FILLER_0_26_301
*744 FILLER_0_26_307
*745 FILLER_0_26_309
*746 FILLER_0_26_321
*747 FILLER_0_26_333
*748 FILLER_0_26_41
*749 FILLER_0_26_53
*750 FILLER_0_26_65
*751 FILLER_0_26_77
*752 FILLER_0_26_83
*753 FILLER_0_26_85
*754 FILLER_0_26_97
*755 FILLER_0_27_105
*756 FILLER_0_27_111
*757 FILLER_0_27_113
*758 FILLER_0_27_125
*759 FILLER_0_27_137
*760 FILLER_0_27_149
*761 FILLER_0_27_15
*762 FILLER_0_27_161
*763 FILLER_0_27_167
*764 FILLER_0_27_169
*765 FILLER_0_27_181
*766 FILLER_0_27_193
*767 FILLER_0_27_205
*768 FILLER_0_27_217
*769 FILLER_0_27_223
*770 FILLER_0_27_225
*771 FILLER_0_27_237
*772 FILLER_0_27_249
*773 FILLER_0_27_261
*774 FILLER_0_27_27
*775 FILLER_0_27_273
*776 FILLER_0_27_279
*777 FILLER_0_27_281
*778 FILLER_0_27_293
*779 FILLER_0_27_3
*780 FILLER_0_27_305
*781 FILLER_0_27_317
*782 FILLER_0_27_329
*783 FILLER_0_27_39
*784 FILLER_0_27_51
*785 FILLER_0_27_55
*786 FILLER_0_27_57
*787 FILLER_0_27_69
*788 FILLER_0_27_81
*789 FILLER_0_27_93
*790 FILLER_0_28_109
*791 FILLER_0_28_121
*792 FILLER_0_28_133
*793 FILLER_0_28_139
*794 FILLER_0_28_141
*795 FILLER_0_28_15
*796 FILLER_0_28_153
*797 FILLER_0_28_165
*798 FILLER_0_28_177
*799 FILLER_0_28_189
*800 FILLER_0_28_195
*801 FILLER_0_28_197
*802 FILLER_0_28_209
*803 FILLER_0_28_221
*804 FILLER_0_28_233
*805 FILLER_0_28_245
*806 FILLER_0_28_251
*807 FILLER_0_28_253
*808 FILLER_0_28_265
*809 FILLER_0_28_27
*810 FILLER_0_28_277
*811 FILLER_0_28_289
*812 FILLER_0_28_29
*813 FILLER_0_28_3
*814 FILLER_0_28_301
*815 FILLER_0_28_307
*816 FILLER_0_28_309
*817 FILLER_0_28_321
*818 FILLER_0_28_333
*819 FILLER_0_28_41
*820 FILLER_0_28_53
*821 FILLER_0_28_65
*822 FILLER_0_28_77
*823 FILLER_0_28_83
*824 FILLER_0_28_85
*825 FILLER_0_28_97
*826 FILLER_0_29_105
*827 FILLER_0_29_111
*828 FILLER_0_29_113
*829 FILLER_0_29_125
*830 FILLER_0_29_137
*831 FILLER_0_29_149
*832 FILLER_0_29_15
*833 FILLER_0_29_161
*834 FILLER_0_29_167
*835 FILLER_0_29_169
*836 FILLER_0_29_181
*837 FILLER_0_29_193
*838 FILLER_0_29_205
*839 FILLER_0_29_217
*840 FILLER_0_29_223
*841 FILLER_0_29_225
*842 FILLER_0_29_237
*843 FILLER_0_29_249
*844 FILLER_0_29_261
*845 FILLER_0_29_27
*846 FILLER_0_29_273
*847 FILLER_0_29_279
*848 FILLER_0_29_281
*849 FILLER_0_29_293
*850 FILLER_0_29_3
*851 FILLER_0_29_305
*852 FILLER_0_29_317
*853 FILLER_0_29_329
*854 FILLER_0_29_39
*855 FILLER_0_29_51
*856 FILLER_0_29_55
*857 FILLER_0_29_57
*858 FILLER_0_29_69
*859 FILLER_0_29_81
*860 FILLER_0_29_93
*861 FILLER_0_2_109
*862 FILLER_0_2_121
*863 FILLER_0_2_133
*864 FILLER_0_2_139
*865 FILLER_0_2_141
*866 FILLER_0_2_15
*867 FILLER_0_2_153
*868 FILLER_0_2_165
*869 FILLER_0_2_177
*870 FILLER_0_2_189
*871 FILLER_0_2_195
*872 FILLER_0_2_197
*873 FILLER_0_2_209
*874 FILLER_0_2_221
*875 FILLER_0_2_233
*876 FILLER_0_2_245
*877 FILLER_0_2_251
*878 FILLER_0_2_253
*879 FILLER_0_2_265
*880 FILLER_0_2_27
*881 FILLER_0_2_277
*882 FILLER_0_2_289
*883 FILLER_0_2_29
*884 FILLER_0_2_3
*885 FILLER_0_2_301
*886 FILLER_0_2_307
*887 FILLER_0_2_309
*888 FILLER_0_2_321
*889 FILLER_0_2_333
*890 FILLER_0_2_41
*891 FILLER_0_2_53
*892 FILLER_0_2_65
*893 FILLER_0_2_77
*894 FILLER_0_2_83
*895 FILLER_0_2_85
*896 FILLER_0_2_97
*897 FILLER_0_30_109
*898 FILLER_0_30_121
*899 FILLER_0_30_133
*900 FILLER_0_30_139
*901 FILLER_0_30_141
*902 FILLER_0_30_15
*903 FILLER_0_30_153
*904 FILLER_0_30_165
*905 FILLER_0_30_177
*906 FILLER_0_30_189
*907 FILLER_0_30_195
*908 FILLER_0_30_197
*909 FILLER_0_30_209
*910 FILLER_0_30_221
*911 FILLER_0_30_233
*912 FILLER_0_30_245
*913 FILLER_0_30_251
*914 FILLER_0_30_253
*915 FILLER_0_30_265
*916 FILLER_0_30_27
*917 FILLER_0_30_277
*918 FILLER_0_30_289
*919 FILLER_0_30_29
*920 FILLER_0_30_3
*921 FILLER_0_30_301
*922 FILLER_0_30_307
*923 FILLER_0_30_309
*924 FILLER_0_30_321
*925 FILLER_0_30_333
*926 FILLER_0_30_41
*927 FILLER_0_30_53
*928 FILLER_0_30_65
*929 FILLER_0_30_77
*930 FILLER_0_30_83
*931 FILLER_0_30_85
*932 FILLER_0_30_97
*933 FILLER_0_31_105
*934 FILLER_0_31_111
*935 FILLER_0_31_113
*936 FILLER_0_31_125
*937 FILLER_0_31_137
*938 FILLER_0_31_149
*939 FILLER_0_31_15
*940 FILLER_0_31_161
*941 FILLER_0_31_167
*942 FILLER_0_31_169
*943 FILLER_0_31_181
*944 FILLER_0_31_193
*945 FILLER_0_31_205
*946 FILLER_0_31_217
*947 FILLER_0_31_223
*948 FILLER_0_31_225
*949 FILLER_0_31_237
*950 FILLER_0_31_249
*951 FILLER_0_31_261
*952 FILLER_0_31_27
*953 FILLER_0_31_273
*954 FILLER_0_31_279
*955 FILLER_0_31_281
*956 FILLER_0_31_293
*957 FILLER_0_31_3
*958 FILLER_0_31_305
*959 FILLER_0_31_317
*960 FILLER_0_31_329
*961 FILLER_0_31_39
*962 FILLER_0_31_51
*963 FILLER_0_31_55
*964 FILLER_0_31_57
*965 FILLER_0_31_69
*966 FILLER_0_31_81
*967 FILLER_0_31_93
*968 FILLER_0_32_109
*969 FILLER_0_32_121
*970 FILLER_0_32_133
*971 FILLER_0_32_139
*972 FILLER_0_32_141
*973 FILLER_0_32_15
*974 FILLER_0_32_153
*975 FILLER_0_32_165
*976 FILLER_0_32_177
*977 FILLER_0_32_189
*978 FILLER_0_32_195
*979 FILLER_0_32_197
*980 FILLER_0_32_209
*981 FILLER_0_32_221
*982 FILLER_0_32_233
*983 FILLER_0_32_245
*984 FILLER_0_32_251
*985 FILLER_0_32_253
*986 FILLER_0_32_265
*987 FILLER_0_32_27
*988 FILLER_0_32_277
*989 FILLER_0_32_289
*990 FILLER_0_32_29
*991 FILLER_0_32_3
*992 FILLER_0_32_301
*993 FILLER_0_32_307
*994 FILLER_0_32_309
*995 FILLER_0_32_321
*996 FILLER_0_32_333
*997 FILLER_0_32_41
*998 FILLER_0_32_53
*999 FILLER_0_32_65
*1000 FILLER_0_32_77
*1001 FILLER_0_32_83
*1002 FILLER_0_32_85
*1003 FILLER_0_32_97
*1004 FILLER_0_33_105
*1005 FILLER_0_33_111
*1006 FILLER_0_33_113
*1007 FILLER_0_33_125
*1008 FILLER_0_33_137
*1009 FILLER_0_33_149
*1010 FILLER_0_33_15
*1011 FILLER_0_33_161
*1012 FILLER_0_33_167
*1013 FILLER_0_33_169
*1014 FILLER_0_33_181
*1015 FILLER_0_33_193
*1016 FILLER_0_33_205
*1017 FILLER_0_33_217
*1018 FILLER_0_33_223
*1019 FILLER_0_33_225
*1020 FILLER_0_33_237
*1021 FILLER_0_33_249
*1022 FILLER_0_33_261
*1023 FILLER_0_33_27
*1024 FILLER_0_33_273
*1025 FILLER_0_33_279
*1026 FILLER_0_33_281
*1027 FILLER_0_33_293
*1028 FILLER_0_33_3
*1029 FILLER_0_33_305
*1030 FILLER_0_33_333
*1031 FILLER_0_33_39
*1032 FILLER_0_33_51
*1033 FILLER_0_33_55
*1034 FILLER_0_33_57
*1035 FILLER_0_33_69
*1036 FILLER_0_33_81
*1037 FILLER_0_33_93
*1038 FILLER_0_34_109
*1039 FILLER_0_34_121
*1040 FILLER_0_34_133
*1041 FILLER_0_34_139
*1042 FILLER_0_34_141
*1043 FILLER_0_34_15
*1044 FILLER_0_34_153
*1045 FILLER_0_34_165
*1046 FILLER_0_34_177
*1047 FILLER_0_34_189
*1048 FILLER_0_34_195
*1049 FILLER_0_34_197
*1050 FILLER_0_34_209
*1051 FILLER_0_34_221
*1052 FILLER_0_34_233
*1053 FILLER_0_34_245
*1054 FILLER_0_34_251
*1055 FILLER_0_34_253
*1056 FILLER_0_34_265
*1057 FILLER_0_34_27
*1058 FILLER_0_34_277
*1059 FILLER_0_34_289
*1060 FILLER_0_34_29
*1061 FILLER_0_34_3
*1062 FILLER_0_34_301
*1063 FILLER_0_34_307
*1064 FILLER_0_34_309
*1065 FILLER_0_34_321
*1066 FILLER_0_34_333
*1067 FILLER_0_34_41
*1068 FILLER_0_34_53
*1069 FILLER_0_34_65
*1070 FILLER_0_34_77
*1071 FILLER_0_34_83
*1072 FILLER_0_34_85
*1073 FILLER_0_34_97
*1074 FILLER_0_35_105
*1075 FILLER_0_35_111
*1076 FILLER_0_35_113
*1077 FILLER_0_35_125
*1078 FILLER_0_35_137
*1079 FILLER_0_35_149
*1080 FILLER_0_35_15
*1081 FILLER_0_35_161
*1082 FILLER_0_35_167
*1083 FILLER_0_35_169
*1084 FILLER_0_35_181
*1085 FILLER_0_35_193
*1086 FILLER_0_35_205
*1087 FILLER_0_35_217
*1088 FILLER_0_35_223
*1089 FILLER_0_35_225
*1090 FILLER_0_35_237
*1091 FILLER_0_35_249
*1092 FILLER_0_35_261
*1093 FILLER_0_35_27
*1094 FILLER_0_35_273
*1095 FILLER_0_35_279
*1096 FILLER_0_35_281
*1097 FILLER_0_35_293
*1098 FILLER_0_35_3
*1099 FILLER_0_35_305
*1100 FILLER_0_35_317
*1101 FILLER_0_35_329
*1102 FILLER_0_35_39
*1103 FILLER_0_35_51
*1104 FILLER_0_35_55
*1105 FILLER_0_35_57
*1106 FILLER_0_35_69
*1107 FILLER_0_35_81
*1108 FILLER_0_35_93
*1109 FILLER_0_36_109
*1110 FILLER_0_36_121
*1111 FILLER_0_36_133
*1112 FILLER_0_36_139
*1113 FILLER_0_36_141
*1114 FILLER_0_36_15
*1115 FILLER_0_36_153
*1116 FILLER_0_36_165
*1117 FILLER_0_36_177
*1118 FILLER_0_36_189
*1119 FILLER_0_36_195
*1120 FILLER_0_36_197
*1121 FILLER_0_36_209
*1122 FILLER_0_36_221
*1123 FILLER_0_36_233
*1124 FILLER_0_36_238
*1125 FILLER_0_36_250
*1126 FILLER_0_36_253
*1127 FILLER_0_36_265
*1128 FILLER_0_36_27
*1129 FILLER_0_36_277
*1130 FILLER_0_36_289
*1131 FILLER_0_36_29
*1132 FILLER_0_36_293
*1133 FILLER_0_36_3
*1134 FILLER_0_36_303
*1135 FILLER_0_36_307
*1136 FILLER_0_36_332
*1137 FILLER_0_36_41
*1138 FILLER_0_36_53
*1139 FILLER_0_36_65
*1140 FILLER_0_36_77
*1141 FILLER_0_36_83
*1142 FILLER_0_36_85
*1143 FILLER_0_36_97
*1144 FILLER_0_37_104
*1145 FILLER_0_37_113
*1146 FILLER_0_37_125
*1147 FILLER_0_37_137
*1148 FILLER_0_37_149
*1149 FILLER_0_37_15
*1150 FILLER_0_37_161
*1151 FILLER_0_37_167
*1152 FILLER_0_37_169
*1153 FILLER_0_37_181
*1154 FILLER_0_37_193
*1155 FILLER_0_37_205
*1156 FILLER_0_37_217
*1157 FILLER_0_37_222
*1158 FILLER_0_37_225
*1159 FILLER_0_37_229
*1160 FILLER_0_37_250
*1161 FILLER_0_37_262
*1162 FILLER_0_37_27
*1163 FILLER_0_37_274
*1164 FILLER_0_37_281
*1165 FILLER_0_37_3
*1166 FILLER_0_37_332
*1167 FILLER_0_37_39
*1168 FILLER_0_37_51
*1169 FILLER_0_37_55
*1170 FILLER_0_37_57
*1171 FILLER_0_37_69
*1172 FILLER_0_37_81
*1173 FILLER_0_37_89
*1174 FILLER_0_38_10
*1175 FILLER_0_38_102
*1176 FILLER_0_38_107
*1177 FILLER_0_38_111
*1178 FILLER_0_38_117
*1179 FILLER_0_38_124
*1180 FILLER_0_38_130
*1181 FILLER_0_38_134
*1182 FILLER_0_38_14
*1183 FILLER_0_38_144
*1184 FILLER_0_38_150
*1185 FILLER_0_38_154
*1186 FILLER_0_38_158
*1187 FILLER_0_38_166
*1188 FILLER_0_38_169
*1189 FILLER_0_38_181
*1190 FILLER_0_38_194
*1191 FILLER_0_38_200
*1192 FILLER_0_38_216
*1193 FILLER_0_38_223
*1194 FILLER_0_38_234
*1195 FILLER_0_38_238
*1196 FILLER_0_38_242
*1197 FILLER_0_38_246
*1198 FILLER_0_38_256
*1199 FILLER_0_38_268
*1200 FILLER_0_38_281
*1201 FILLER_0_38_286
*1202 FILLER_0_38_29
*1203 FILLER_0_38_36
*1204 FILLER_0_38_44
*1205 FILLER_0_38_52
*1206 FILLER_0_38_6
*1207 FILLER_0_38_61
*1208 FILLER_0_38_70
*1209 FILLER_0_38_74
*1210 FILLER_0_38_78
*1211 FILLER_0_38_95
*1212 FILLER_0_3_105
*1213 FILLER_0_3_111
*1214 FILLER_0_3_113
*1215 FILLER_0_3_125
*1216 FILLER_0_3_137
*1217 FILLER_0_3_149
*1218 FILLER_0_3_15
*1219 FILLER_0_3_161
*1220 FILLER_0_3_167
*1221 FILLER_0_3_169
*1222 FILLER_0_3_181
*1223 FILLER_0_3_193
*1224 FILLER_0_3_205
*1225 FILLER_0_3_217
*1226 FILLER_0_3_223
*1227 FILLER_0_3_225
*1228 FILLER_0_3_237
*1229 FILLER_0_3_249
*1230 FILLER_0_3_261
*1231 FILLER_0_3_27
*1232 FILLER_0_3_273
*1233 FILLER_0_3_279
*1234 FILLER_0_3_281
*1235 FILLER_0_3_293
*1236 FILLER_0_3_3
*1237 FILLER_0_3_305
*1238 FILLER_0_3_317
*1239 FILLER_0_3_329
*1240 FILLER_0_3_39
*1241 FILLER_0_3_51
*1242 FILLER_0_3_55
*1243 FILLER_0_3_57
*1244 FILLER_0_3_69
*1245 FILLER_0_3_81
*1246 FILLER_0_3_93
*1247 FILLER_0_4_109
*1248 FILLER_0_4_121
*1249 FILLER_0_4_133
*1250 FILLER_0_4_139
*1251 FILLER_0_4_141
*1252 FILLER_0_4_15
*1253 FILLER_0_4_153
*1254 FILLER_0_4_165
*1255 FILLER_0_4_177
*1256 FILLER_0_4_189
*1257 FILLER_0_4_195
*1258 FILLER_0_4_197
*1259 FILLER_0_4_209
*1260 FILLER_0_4_221
*1261 FILLER_0_4_233
*1262 FILLER_0_4_245
*1263 FILLER_0_4_251
*1264 FILLER_0_4_253
*1265 FILLER_0_4_265
*1266 FILLER_0_4_27
*1267 FILLER_0_4_277
*1268 FILLER_0_4_289
*1269 FILLER_0_4_29
*1270 FILLER_0_4_3
*1271 FILLER_0_4_301
*1272 FILLER_0_4_307
*1273 FILLER_0_4_309
*1274 FILLER_0_4_321
*1275 FILLER_0_4_333
*1276 FILLER_0_4_41
*1277 FILLER_0_4_53
*1278 FILLER_0_4_65
*1279 FILLER_0_4_77
*1280 FILLER_0_4_83
*1281 FILLER_0_4_85
*1282 FILLER_0_4_97
*1283 FILLER_0_5_105
*1284 FILLER_0_5_111
*1285 FILLER_0_5_113
*1286 FILLER_0_5_125
*1287 FILLER_0_5_137
*1288 FILLER_0_5_149
*1289 FILLER_0_5_15
*1290 FILLER_0_5_161
*1291 FILLER_0_5_167
*1292 FILLER_0_5_169
*1293 FILLER_0_5_181
*1294 FILLER_0_5_193
*1295 FILLER_0_5_205
*1296 FILLER_0_5_217
*1297 FILLER_0_5_223
*1298 FILLER_0_5_225
*1299 FILLER_0_5_237
*1300 FILLER_0_5_249
*1301 FILLER_0_5_261
*1302 FILLER_0_5_27
*1303 FILLER_0_5_273
*1304 FILLER_0_5_279
*1305 FILLER_0_5_281
*1306 FILLER_0_5_293
*1307 FILLER_0_5_3
*1308 FILLER_0_5_305
*1309 FILLER_0_5_317
*1310 FILLER_0_5_329
*1311 FILLER_0_5_39
*1312 FILLER_0_5_51
*1313 FILLER_0_5_55
*1314 FILLER_0_5_57
*1315 FILLER_0_5_69
*1316 FILLER_0_5_81
*1317 FILLER_0_5_93
*1318 FILLER_0_6_109
*1319 FILLER_0_6_121
*1320 FILLER_0_6_133
*1321 FILLER_0_6_139
*1322 FILLER_0_6_141
*1323 FILLER_0_6_15
*1324 FILLER_0_6_153
*1325 FILLER_0_6_165
*1326 FILLER_0_6_177
*1327 FILLER_0_6_189
*1328 FILLER_0_6_195
*1329 FILLER_0_6_197
*1330 FILLER_0_6_209
*1331 FILLER_0_6_221
*1332 FILLER_0_6_233
*1333 FILLER_0_6_245
*1334 FILLER_0_6_251
*1335 FILLER_0_6_253
*1336 FILLER_0_6_265
*1337 FILLER_0_6_27
*1338 FILLER_0_6_277
*1339 FILLER_0_6_289
*1340 FILLER_0_6_29
*1341 FILLER_0_6_3
*1342 FILLER_0_6_301
*1343 FILLER_0_6_307
*1344 FILLER_0_6_309
*1345 FILLER_0_6_321
*1346 FILLER_0_6_333
*1347 FILLER_0_6_41
*1348 FILLER_0_6_53
*1349 FILLER_0_6_65
*1350 FILLER_0_6_77
*1351 FILLER_0_6_83
*1352 FILLER_0_6_85
*1353 FILLER_0_6_97
*1354 FILLER_0_7_105
*1355 FILLER_0_7_111
*1356 FILLER_0_7_113
*1357 FILLER_0_7_125
*1358 FILLER_0_7_137
*1359 FILLER_0_7_149
*1360 FILLER_0_7_15
*1361 FILLER_0_7_161
*1362 FILLER_0_7_167
*1363 FILLER_0_7_169
*1364 FILLER_0_7_181
*1365 FILLER_0_7_193
*1366 FILLER_0_7_205
*1367 FILLER_0_7_217
*1368 FILLER_0_7_223
*1369 FILLER_0_7_225
*1370 FILLER_0_7_237
*1371 FILLER_0_7_249
*1372 FILLER_0_7_261
*1373 FILLER_0_7_27
*1374 FILLER_0_7_273
*1375 FILLER_0_7_279
*1376 FILLER_0_7_281
*1377 FILLER_0_7_293
*1378 FILLER_0_7_3
*1379 FILLER_0_7_305
*1380 FILLER_0_7_317
*1381 FILLER_0_7_329
*1382 FILLER_0_7_39
*1383 FILLER_0_7_51
*1384 FILLER_0_7_55
*1385 FILLER_0_7_57
*1386 FILLER_0_7_69
*1387 FILLER_0_7_81
*1388 FILLER_0_7_93
*1389 FILLER_0_8_109
*1390 FILLER_0_8_121
*1391 FILLER_0_8_133
*1392 FILLER_0_8_139
*1393 FILLER_0_8_141
*1394 FILLER_0_8_15
*1395 FILLER_0_8_153
*1396 FILLER_0_8_165
*1397 FILLER_0_8_177
*1398 FILLER_0_8_189
*1399 FILLER_0_8_195
*1400 FILLER_0_8_197
*1401 FILLER_0_8_209
*1402 FILLER_0_8_221
*1403 FILLER_0_8_233
*1404 FILLER_0_8_245
*1405 FILLER_0_8_251
*1406 FILLER_0_8_253
*1407 FILLER_0_8_265
*1408 FILLER_0_8_27
*1409 FILLER_0_8_277
*1410 FILLER_0_8_289
*1411 FILLER_0_8_29
*1412 FILLER_0_8_3
*1413 FILLER_0_8_301
*1414 FILLER_0_8_307
*1415 FILLER_0_8_309
*1416 FILLER_0_8_321
*1417 FILLER_0_8_333
*1418 FILLER_0_8_41
*1419 FILLER_0_8_53
*1420 FILLER_0_8_65
*1421 FILLER_0_8_77
*1422 FILLER_0_8_83
*1423 FILLER_0_8_85
*1424 FILLER_0_8_97
*1425 FILLER_0_9_105
*1426 FILLER_0_9_111
*1427 FILLER_0_9_113
*1428 FILLER_0_9_125
*1429 FILLER_0_9_137
*1430 FILLER_0_9_149
*1431 FILLER_0_9_15
*1432 FILLER_0_9_161
*1433 FILLER_0_9_167
*1434 FILLER_0_9_169
*1435 FILLER_0_9_181
*1436 FILLER_0_9_193
*1437 FILLER_0_9_205
*1438 FILLER_0_9_217
*1439 FILLER_0_9_223
*1440 FILLER_0_9_225
*1441 FILLER_0_9_237
*1442 FILLER_0_9_249
*1443 FILLER_0_9_261
*1444 FILLER_0_9_27
*1445 FILLER_0_9_273
*1446 FILLER_0_9_279
*1447 FILLER_0_9_281
*1448 FILLER_0_9_293
*1449 FILLER_0_9_3
*1450 FILLER_0_9_305
*1451 FILLER_0_9_317
*1452 FILLER_0_9_329
*1453 FILLER_0_9_39
*1454 FILLER_0_9_51
*1455 FILLER_0_9_55
*1456 FILLER_0_9_57
*1457 FILLER_0_9_69
*1458 FILLER_0_9_81
*1459 FILLER_0_9_93
*1460 PHY_EDGE_ROW_0_Left_39
*1461 PHY_EDGE_ROW_0_Right_0