*SPEF "ieee 1481-1999"
*DESIGN "tt_um_noritsuna_i4004"
*DATE "11:11:11 Fri 11 11, 1111"
*VENDOR "OpenRCX"
*PROGRAM "Parallel Extraction"
*VERSION "1.0"
*DESIGN_FLOW "NAME_SCOPE LOCAL" "PIN_CAP NONE"
*DIVIDER /
*DELIMITER :
*BUS_DELIMITER []
*T_UNIT 1 NS
*C_UNIT 1 PF
*R_UNIT 1 OHM
*L_UNIT 1 HENRY

*NAME_MAP
*3 clk
*4 ena
*5 rst_n
*6 ui_in[0]
*7 ui_in[1]
*8 ui_in[2]
*9 ui_in[3]
*10 ui_in[4]
*11 ui_in[5]
*12 ui_in[6]
*13 ui_in[7]
*14 uio_in[0]
*15 uio_in[1]
*16 uio_in[2]
*17 uio_in[3]
*18 uio_in[4]
*19 uio_in[5]
*20 uio_in[6]
*21 uio_in[7]
*22 net20
*23 net7
*24 net8
*25 net9
*26 net10
*27 net11
*28 net12
*29 net13
*30 uio_out[0]
*31 uio_out[1]
*32 uio_out[2]
*33 uio_out[3]
*34 net14
*35 net15
*36 net16
*37 net17
*38 uo_out[0]
*39 uo_out[1]
*40 uo_out[2]
*41 uo_out[3]
*42 uo_out[4]
*43 uo_out[5]
*44 net18
*45 net19
*46 _0000_
*47 _0001_
*48 _0002_
*49 _0003_
*50 _0004_
*51 _0005_
*52 _0006_
*53 _0007_
*54 _0008_
*55 _0009_
*56 _0010_
*57 _0011_
*58 _0012_
*59 _0013_
*60 _0014_
*61 _0015_
*62 _0016_
*63 _0017_
*64 _0018_
*65 _0019_
*66 _0020_
*67 _0021_
*68 _0022_
*69 _0023_
*70 _0024_
*71 _0025_
*72 _0026_
*73 _0027_
*74 _0028_
*75 _0029_
*76 _0030_
*77 _0031_
*78 _0032_
*79 _0033_
*80 _0034_
*81 _0035_
*82 _0036_
*83 _0037_
*84 _0038_
*85 _0039_
*86 _0040_
*87 _0041_
*88 _0042_
*89 _0043_
*90 _0044_
*91 _0045_
*92 _0046_
*93 _0047_
*94 _0048_
*95 _0049_
*96 _0050_
*97 _0051_
*98 _0052_
*99 _0053_
*100 _0054_
*101 _0055_
*102 _0056_
*103 _0057_
*104 _0058_
*105 _0059_
*106 _0060_
*107 _0061_
*108 _0062_
*109 _0063_
*110 _0064_
*111 _0065_
*112 _0066_
*113 _0067_
*114 _0068_
*115 _0069_
*116 _0070_
*117 _0071_
*118 _0072_
*119 _0073_
*120 _0074_
*121 _0075_
*122 _0076_
*123 _0077_
*124 _0078_
*125 _0079_
*126 _0080_
*127 _0081_
*128 _0082_
*129 _0083_
*130 _0084_
*131 _0085_
*132 _0086_
*133 _0087_
*134 _0088_
*135 _0089_
*136 _0090_
*137 _0091_
*138 _0092_
*139 _0093_
*140 _0094_
*141 _0095_
*142 _0096_
*143 _0097_
*144 _0098_
*145 _0099_
*146 _0100_
*147 _0101_
*148 _0102_
*149 _0103_
*150 _0104_
*151 _0105_
*152 _0106_
*153 _0107_
*154 _0108_
*155 _0109_
*156 _0110_
*157 _0111_
*158 _0112_
*159 _0113_
*160 _0114_
*161 _0115_
*162 _0116_
*163 _0117_
*164 _0118_
*165 _0119_
*166 _0120_
*167 _0121_
*168 _0122_
*169 _0123_
*170 _0124_
*171 _0125_
*172 _0126_
*173 _0127_
*174 _0128_
*175 _0129_
*176 _0130_
*177 _0131_
*178 _0132_
*179 _0133_
*180 _0134_
*181 _0135_
*182 _0136_
*183 _0137_
*184 _0138_
*185 _0139_
*186 _0140_
*187 _0141_
*188 _0142_
*189 _0143_
*190 _0144_
*191 _0145_
*192 _0146_
*193 _0147_
*194 _0148_
*195 _0149_
*196 _0150_
*197 _0151_
*198 _0152_
*199 _0153_
*200 _0154_
*201 _0155_
*202 _0156_
*203 _0157_
*204 _0158_
*205 _0159_
*206 _0160_
*207 _0161_
*208 _0162_
*209 _0163_
*210 _0164_
*211 _0165_
*212 _0166_
*213 _0167_
*214 _0168_
*215 _0169_
*216 _0170_
*217 _0171_
*218 _0172_
*219 _0173_
*220 _0174_
*221 _0175_
*222 _0176_
*223 _0177_
*224 _0178_
*225 _0179_
*226 _0180_
*227 _0181_
*228 _0182_
*229 _0183_
*230 _0184_
*231 _0185_
*232 _0186_
*233 _0187_
*234 _0188_
*235 _0189_
*236 _0190_
*237 _0191_
*238 _0192_
*239 _0193_
*240 _0194_
*241 _0195_
*242 _0196_
*243 _0197_
*244 _0198_
*245 _0199_
*246 _0200_
*247 _0201_
*248 _0202_
*249 _0203_
*250 _0204_
*251 _0205_
*252 _0206_
*253 _0207_
*254 _0208_
*255 _0209_
*256 _0210_
*257 _0211_
*258 _0212_
*259 _0213_
*260 _0214_
*261 _0215_
*262 _0216_
*263 _0217_
*264 _0218_
*265 _0219_
*266 _0220_
*267 _0221_
*268 _0222_
*269 _0223_
*270 _0224_
*271 _0225_
*272 _0226_
*273 _0227_
*274 _0228_
*275 _0229_
*276 _0230_
*277 _0231_
*278 _0232_
*279 _0233_
*280 _0234_
*281 _0235_
*282 _0236_
*283 _0237_
*284 _0238_
*285 _0239_
*286 _0240_
*287 _0241_
*288 _0242_
*289 _0243_
*290 _0244_
*291 _0245_
*292 _0246_
*293 _0247_
*294 _0248_
*295 _0249_
*296 _0250_
*297 _0251_
*298 _0252_
*299 _0253_
*300 _0254_
*301 _0255_
*302 _0256_
*303 _0257_
*304 _0258_
*305 _0259_
*306 _0260_
*307 _0261_
*308 _0262_
*309 _0263_
*310 _0264_
*311 _0265_
*312 _0266_
*313 _0267_
*314 _0268_
*315 _0269_
*316 _0270_
*317 _0271_
*318 _0272_
*319 _0273_
*320 _0274_
*321 _0275_
*322 _0276_
*323 _0277_
*324 _0278_
*325 _0279_
*326 _0280_
*327 _0281_
*328 _0282_
*329 _0283_
*330 _0284_
*331 _0285_
*332 _0286_
*333 _0287_
*334 _0288_
*335 _0289_
*336 _0290_
*337 _0291_
*338 _0292_
*339 _0293_
*340 _0294_
*341 _0295_
*342 _0296_
*343 _0297_
*344 _0298_
*345 _0299_
*346 _0300_
*347 _0301_
*348 _0302_
*349 _0303_
*350 _0304_
*351 _0305_
*352 _0306_
*353 _0307_
*354 _0308_
*355 _0309_
*356 _0310_
*357 _0311_
*358 _0312_
*359 _0313_
*360 _0314_
*361 _0315_
*362 _0316_
*363 _0317_
*364 _0318_
*365 _0319_
*366 _0320_
*367 _0321_
*368 _0322_
*369 _0323_
*370 _0324_
*371 _0325_
*372 _0326_
*373 _0327_
*374 _0328_
*375 _0329_
*376 _0330_
*377 _0331_
*378 _0332_
*379 _0333_
*380 _0334_
*381 _0335_
*382 _0336_
*383 _0337_
*384 _0338_
*385 _0339_
*386 _0340_
*387 _0341_
*388 _0342_
*389 _0343_
*390 _0344_
*391 _0345_
*392 _0346_
*393 _0347_
*394 _0348_
*395 _0349_
*396 _0350_
*397 _0351_
*398 _0352_
*399 _0353_
*400 _0354_
*401 _0355_
*402 _0356_
*403 _0357_
*404 _0358_
*405 _0359_
*406 _0360_
*407 _0361_
*408 _0362_
*409 _0363_
*410 _0364_
*411 _0365_
*412 _0366_
*413 _0367_
*414 _0368_
*415 _0369_
*416 _0370_
*417 _0371_
*418 _0372_
*419 _0373_
*420 _0374_
*421 _0375_
*422 _0376_
*423 _0377_
*424 _0378_
*425 _0379_
*426 _0380_
*427 _0381_
*428 _0382_
*429 _0383_
*430 _0384_
*431 _0385_
*432 _0386_
*433 _0387_
*434 _0388_
*435 _0389_
*436 _0390_
*437 _0391_
*438 _0392_
*439 _0393_
*440 _0394_
*441 _0395_
*442 _0396_
*443 _0397_
*444 _0398_
*445 _0399_
*446 _0400_
*447 _0401_
*448 _0402_
*449 _0403_
*450 _0404_
*451 _0405_
*452 _0406_
*453 _0407_
*454 _0408_
*455 _0409_
*456 _0410_
*457 _0411_
*458 _0412_
*459 _0413_
*460 _0414_
*461 _0415_
*462 _0416_
*463 _0417_
*464 _0418_
*465 _0419_
*466 _0420_
*467 _0421_
*468 _0422_
*469 _0423_
*470 _0424_
*471 _0425_
*472 _0426_
*473 _0427_
*474 _0428_
*475 _0429_
*476 _0430_
*477 _0431_
*478 _0432_
*479 _0433_
*480 _0434_
*481 _0435_
*482 _0436_
*483 _0437_
*484 _0438_
*485 _0439_
*486 _0440_
*487 _0441_
*488 _0442_
*489 _0443_
*490 _0444_
*491 _0445_
*492 _0446_
*493 _0447_
*494 _0448_
*495 _0449_
*496 _0450_
*497 _0451_
*498 _0452_
*499 _0453_
*500 _0454_
*501 _0455_
*502 _0456_
*503 _0457_
*504 _0458_
*505 _0459_
*506 _0460_
*507 _0461_
*508 _0462_
*509 _0463_
*510 _0464_
*511 _0465_
*512 _0466_
*513 _0467_
*514 _0468_
*515 _0469_
*516 _0470_
*517 _0471_
*518 _0472_
*519 _0473_
*520 _0474_
*521 _0475_
*522 _0476_
*523 _0477_
*524 _0478_
*525 _0479_
*526 _0480_
*527 _0481_
*528 _0482_
*529 _0483_
*530 _0484_
*531 _0485_
*532 _0486_
*533 _0487_
*534 _0488_
*535 _0489_
*536 _0490_
*537 _0491_
*538 _0492_
*539 _0493_
*540 _0494_
*541 _0495_
*542 _0496_
*543 _0497_
*544 _0498_
*545 _0499_
*546 _0500_
*547 _0501_
*548 _0502_
*549 _0503_
*550 _0504_
*551 _0505_
*552 _0506_
*553 _0507_
*554 _0508_
*555 _0509_
*556 _0510_
*557 _0511_
*558 _0512_
*559 _0513_
*560 _0514_
*561 _0515_
*562 _0516_
*563 _0517_
*564 _0518_
*565 _0519_
*566 _0520_
*567 _0521_
*568 _0522_
*569 _0523_
*570 _0524_
*571 _0525_
*572 _0526_
*573 _0527_
*574 _0528_
*575 _0529_
*576 _0530_
*577 _0531_
*578 _0532_
*579 _0533_
*580 _0534_
*581 _0535_
*582 _0536_
*583 _0537_
*584 _0538_
*585 _0539_
*586 _0540_
*587 _0541_
*588 _0542_
*589 _0543_
*590 _0544_
*591 _0545_
*592 _0546_
*593 _0547_
*594 _0548_
*595 _0549_
*596 _0550_
*597 _0551_
*598 _0552_
*599 _0553_
*600 _0554_
*601 _0555_
*602 _0556_
*603 _0557_
*604 _0558_
*605 _0559_
*606 _0560_
*607 _0561_
*608 _0562_
*609 alu_board\.a12
*610 alu_board\.acc\[0\]
*611 alu_board\.acc\[1\]
*612 alu_board\.acc\[2\]
*613 alu_board\.acc\[3\]
*614 alu_board\.acc_out\[0\]
*615 alu_board\.acc_out\[1\]
*616 alu_board\.acc_out\[2\]
*617 alu_board\.acc_out\[3\]
*618 alu_board\.cmram0
*619 alu_board\.cmram1
*620 alu_board\.cmram2
*621 alu_board\.cmram3
*622 alu_board\.cmrom
*623 alu_board\.cy
*624 alu_board\.cy_1
*625 alu_board\.data\[0\]
*626 alu_board\.data\[1\]
*627 alu_board\.data\[2\]
*628 alu_board\.data\[3\]
*629 alu_board\.m12
*630 alu_board\.n0550
*631 alu_board\.n0749
*632 alu_board\.n0750
*633 alu_board\.n0751
*634 alu_board\.n0854
*635 alu_board\.n0870
*636 alu_board\.n0871
*637 alu_board\.n0872
*638 alu_board\.n0873
*639 alu_board\.n0887
*640 alu_board\.n0889
*641 alu_board\.n0891
*642 alu_board\.n0893
*643 alu_board\.poc
*644 alu_board\.tmp\[0\]
*645 alu_board\.tmp\[1\]
*646 alu_board\.tmp\[2\]
*647 alu_board\.tmp\[3\]
*648 clknet_0_clk
*649 clknet_4_0_0_clk
*650 clknet_4_10_0_clk
*651 clknet_4_11_0_clk
*652 clknet_4_12_0_clk
*653 clknet_4_13_0_clk
*654 clknet_4_14_0_clk
*655 clknet_4_15_0_clk
*656 clknet_4_1_0_clk
*657 clknet_4_2_0_clk
*658 clknet_4_3_0_clk
*659 clknet_4_4_0_clk
*660 clknet_4_5_0_clk
*661 clknet_4_6_0_clk
*662 clknet_4_7_0_clk
*663 clknet_4_8_0_clk
*664 clknet_4_9_0_clk
*665 id_board\.a22
*666 id_board\.dc
*667 id_board\.m22
*668 id_board\.n0360
*669 id_board\.n0362
*670 id_board\.n0380
*671 id_board\.n0414
*672 id_board\.n0425
*673 id_board\.n0433
*674 id_board\.n0797
*675 id_board\.n0801
*676 id_board\.n0805
*677 id_board\.opa\[0\]
*678 id_board\.opa\[1\]
*679 id_board\.opa\[2\]
*680 id_board\.opa\[3\]
*681 id_board\.opr\[0\]
*682 id_board\.opr\[1\]
*683 id_board\.opr\[2\]
*684 id_board\.opr\[3\]
*685 id_board\.x22
*686 id_board\.x32
*687 ip_board\.a32
*688 net1
*689 net100
*690 net101
*691 net102
*692 net103
*693 net104
*694 net105
*695 net106
*696 net107
*697 net108
*698 net109
*699 net110
*700 net111
*701 net112
*702 net113
*703 net114
*704 net115
*705 net116
*706 net117
*707 net118
*708 net119
*709 net120
*710 net121
*711 net122
*712 net123
*713 net124
*714 net125
*715 net126
*716 net127
*717 net128
*718 net129
*719 net130
*720 net131
*721 net132
*722 net133
*723 net134
*724 net135
*725 net136
*726 net137
*727 net138
*728 net139
*729 net140
*730 net141
*731 net142
*732 net143
*733 net144
*734 net145
*735 net146
*736 net147
*737 net148
*738 net149
*739 net150
*740 net151
*741 net152
*742 net153
*743 net154
*744 net155
*745 net2
*746 net21
*747 net22
*748 net23
*749 net24
*750 net25
*751 net26
*752 net27
*753 net28
*754 net29
*755 net3
*756 net30
*757 net31
*758 net32
*759 net33
*760 net34
*761 net35
*762 net36
*763 net37
*764 net38
*765 net39
*766 net4
*767 net40
*768 net41
*769 net42
*770 net43
*771 net44
*772 net45
*773 net46
*774 net47
*775 net48
*776 net49
*777 net5
*778 net50
*779 net51
*780 net52
*781 net53
*782 net54
*783 net55
*784 net56
*785 net57
*786 net58
*787 net59
*788 net6
*789 net60
*790 net61
*791 net62
*792 net63
*793 net64
*794 net65
*795 net66
*796 net67
*797 net68
*798 net69
*799 net70
*800 net71
*801 net72
*802 net73
*803 net74
*804 net75
*805 net76
*806 net77
*807 net78
*808 net79
*809 net80
*810 net81
*811 net82
*812 net83
*813 net84
*814 net85
*815 net86
*816 net87
*817 net88
*818 net89
*819 net90
*820 net91
*821 net92
*822 net93
*823 net94
*824 net95
*825 net96
*826 net97
*827 net98
*828 net99
*829 sp_board\.din_n\[0\]
*830 sp_board\.din_n\[1\]
*831 sp_board\.din_n\[2\]
*832 sp_board\.din_n\[3\]
*833 sp_board\.dram_array\[0\]\[0\]
*834 sp_board\.dram_array\[0\]\[1\]
*835 sp_board\.dram_array\[0\]\[2\]
*836 sp_board\.dram_array\[0\]\[3\]
*837 sp_board\.dram_array\[0\]\[4\]
*838 sp_board\.dram_array\[0\]\[5\]
*839 sp_board\.dram_array\[0\]\[6\]
*840 sp_board\.dram_array\[0\]\[7\]
*841 sp_board\.dram_array\[1\]\[0\]
*842 sp_board\.dram_array\[1\]\[1\]
*843 sp_board\.dram_array\[1\]\[2\]
*844 sp_board\.dram_array\[1\]\[3\]
*845 sp_board\.dram_array\[1\]\[4\]
*846 sp_board\.dram_array\[1\]\[5\]
*847 sp_board\.dram_array\[1\]\[6\]
*848 sp_board\.dram_array\[1\]\[7\]
*849 sp_board\.dram_array\[2\]\[0\]
*850 sp_board\.dram_array\[2\]\[1\]
*851 sp_board\.dram_array\[2\]\[2\]
*852 sp_board\.dram_array\[2\]\[3\]
*853 sp_board\.dram_array\[2\]\[4\]
*854 sp_board\.dram_array\[2\]\[5\]
*855 sp_board\.dram_array\[2\]\[6\]
*856 sp_board\.dram_array\[2\]\[7\]
*857 sp_board\.dram_array\[3\]\[0\]
*858 sp_board\.dram_array\[3\]\[1\]
*859 sp_board\.dram_array\[3\]\[2\]
*860 sp_board\.dram_array\[3\]\[3\]
*861 sp_board\.dram_array\[3\]\[4\]
*862 sp_board\.dram_array\[3\]\[5\]
*863 sp_board\.dram_array\[3\]\[6\]
*864 sp_board\.dram_array\[3\]\[7\]
*865 sp_board\.dram_array\[4\]\[0\]
*866 sp_board\.dram_array\[4\]\[1\]
*867 sp_board\.dram_array\[4\]\[2\]
*868 sp_board\.dram_array\[4\]\[3\]
*869 sp_board\.dram_array\[4\]\[4\]
*870 sp_board\.dram_array\[4\]\[5\]
*871 sp_board\.dram_array\[4\]\[6\]
*872 sp_board\.dram_array\[4\]\[7\]
*873 sp_board\.dram_array\[5\]\[0\]
*874 sp_board\.dram_array\[5\]\[1\]
*875 sp_board\.dram_array\[5\]\[2\]
*876 sp_board\.dram_array\[5\]\[3\]
*877 sp_board\.dram_array\[5\]\[4\]
*878 sp_board\.dram_array\[5\]\[5\]
*879 sp_board\.dram_array\[5\]\[6\]
*880 sp_board\.dram_array\[5\]\[7\]
*881 sp_board\.dram_array\[6\]\[0\]
*882 sp_board\.dram_array\[6\]\[1\]
*883 sp_board\.dram_array\[6\]\[2\]
*884 sp_board\.dram_array\[6\]\[3\]
*885 sp_board\.dram_array\[6\]\[4\]
*886 sp_board\.dram_array\[6\]\[5\]
*887 sp_board\.dram_array\[6\]\[6\]
*888 sp_board\.dram_array\[6\]\[7\]
*889 sp_board\.dram_array\[7\]\[0\]
*890 sp_board\.dram_array\[7\]\[1\]
*891 sp_board\.dram_array\[7\]\[2\]
*892 sp_board\.dram_array\[7\]\[3\]
*893 sp_board\.dram_array\[7\]\[4\]
*894 sp_board\.dram_array\[7\]\[5\]
*895 sp_board\.dram_array\[7\]\[6\]
*896 sp_board\.dram_array\[7\]\[7\]
*897 sp_board\.dram_temp\[0\]
*898 sp_board\.dram_temp\[1\]
*899 sp_board\.dram_temp\[2\]
*900 sp_board\.dram_temp\[3\]
*901 sp_board\.dram_temp\[4\]
*902 sp_board\.dram_temp\[5\]
*903 sp_board\.dram_temp\[6\]
*904 sp_board\.dram_temp\[7\]
*905 sp_board\.n0615
*906 sp_board\.reg_rfsh_0\.q
*907 sp_board\.reg_rfsh_0\.q_n
*908 sp_board\.reg_rfsh_1\.q
*909 sp_board\.reg_rfsh_1\.q_n
*910 sp_board\.reg_rfsh_2\.q
*911 sp_board\.reg_rfsh_2\.q_n
*912 sp_board\.row\[0\]
*913 sp_board\.row\[1\]
*914 sp_board\.row\[2\]
*915 tio_board\.L
*916 tio_board\.data_out\[0\]
*917 tio_board\.data_out\[1\]
*918 tio_board\.data_out\[2\]
*919 tio_board\.data_out\[3\]
*920 tio_board\.master\[0\]
*921 tio_board\.master\[1\]
*922 tio_board\.master\[2\]
*923 tio_board\.master\[3\]
*924 tio_board\.master\[4\]
*925 tio_board\.master\[5\]
*926 tio_board\.master\[6\]
*927 tio_board\.master\[7\]
*928 tio_board\.n0278
*929 tio_board\.n0707
*930 tio_board\.sync_pad
*931 FILLER_0_0_113
*932 FILLER_0_0_125
*933 FILLER_0_0_137
*934 FILLER_0_0_141
*935 FILLER_0_0_15
*936 FILLER_0_0_164
*937 FILLER_0_0_169
*938 FILLER_0_0_181
*939 FILLER_0_0_193
*940 FILLER_0_0_197
*941 FILLER_0_0_207
*942 FILLER_0_0_219
*943 FILLER_0_0_223
*944 FILLER_0_0_225
*945 FILLER_0_0_237
*946 FILLER_0_0_249
*947 FILLER_0_0_253
*948 FILLER_0_0_265
*949 FILLER_0_0_27
*950 FILLER_0_0_277
*951 FILLER_0_0_281
*952 FILLER_0_0_29
*953 FILLER_0_0_293
*954 FILLER_0_0_3
*955 FILLER_0_0_305
*956 FILLER_0_0_309
*957 FILLER_0_0_321
*958 FILLER_0_0_333
*959 FILLER_0_0_41
*960 FILLER_0_0_53
*961 FILLER_0_0_57
*962 FILLER_0_0_69
*963 FILLER_0_0_81
*964 FILLER_0_0_85
*965 FILLER_0_0_97
*966 FILLER_0_10_122
*967 FILLER_0_10_135
*968 FILLER_0_10_139
*969 FILLER_0_10_141
*970 FILLER_0_10_172
*971 FILLER_0_10_197
*972 FILLER_0_10_216
*973 FILLER_0_10_222
*974 FILLER_0_10_248
*975 FILLER_0_10_253
*976 FILLER_0_10_3
*977 FILLER_0_10_303
*978 FILLER_0_10_307
*979 FILLER_0_10_309
*980 FILLER_0_10_321
*981 FILLER_0_10_333
*982 FILLER_0_10_46
*983 FILLER_0_10_72
*984 FILLER_0_10_93
*985 FILLER_0_11_111
*986 FILLER_0_11_129
*987 FILLER_0_11_159
*988 FILLER_0_11_167
*989 FILLER_0_11_169
*990 FILLER_0_11_180
*991 FILLER_0_11_194
*992 FILLER_0_11_198
*993 FILLER_0_11_204
*994 FILLER_0_11_216
*995 FILLER_0_11_225
*996 FILLER_0_11_246
*997 FILLER_0_11_3
*998 FILLER_0_11_306
*999 FILLER_0_11_318
*1000 FILLER_0_11_330
*1001 FILLER_0_11_334
*1002 FILLER_0_11_55
*1003 FILLER_0_11_71
*1004 FILLER_0_11_80
*1005 FILLER_0_12_11
*1006 FILLER_0_12_131
*1007 FILLER_0_12_153
*1008 FILLER_0_12_165
*1009 FILLER_0_12_195
*1010 FILLER_0_12_197
*1011 FILLER_0_12_205
*1012 FILLER_0_12_217
*1013 FILLER_0_12_221
*1014 FILLER_0_12_250
*1015 FILLER_0_12_298
*1016 FILLER_0_12_3
*1017 FILLER_0_12_306
*1018 FILLER_0_12_309
*1019 FILLER_0_12_321
*1020 FILLER_0_12_333
*1021 FILLER_0_12_38
*1022 FILLER_0_12_42
*1023 FILLER_0_12_79
*1024 FILLER_0_12_83
*1025 FILLER_0_13_102
*1026 FILLER_0_13_11
*1027 FILLER_0_13_130
*1028 FILLER_0_13_136
*1029 FILLER_0_13_154
*1030 FILLER_0_13_166
*1031 FILLER_0_13_169
*1032 FILLER_0_13_179
*1033 FILLER_0_13_207
*1034 FILLER_0_13_257
*1035 FILLER_0_13_263
*1036 FILLER_0_13_3
*1037 FILLER_0_13_305
*1038 FILLER_0_13_317
*1039 FILLER_0_13_329
*1040 FILLER_0_13_47
*1041 FILLER_0_13_55
*1042 FILLER_0_13_82
*1043 FILLER_0_14_105
*1044 FILLER_0_14_121
*1045 FILLER_0_14_128
*1046 FILLER_0_14_141
*1047 FILLER_0_14_151
*1048 FILLER_0_14_159
*1049 FILLER_0_14_166
*1050 FILLER_0_14_178
*1051 FILLER_0_14_194
*1052 FILLER_0_14_197
*1053 FILLER_0_14_205
*1054 FILLER_0_14_217
*1055 FILLER_0_14_223
*1056 FILLER_0_14_248
*1057 FILLER_0_14_25
*1058 FILLER_0_14_253
*1059 FILLER_0_14_296
*1060 FILLER_0_14_3
*1061 FILLER_0_14_309
*1062 FILLER_0_14_321
*1063 FILLER_0_14_333
*1064 FILLER_0_14_38
*1065 FILLER_0_14_56
*1066 FILLER_0_14_62
*1067 FILLER_0_14_93
*1068 FILLER_0_15_109
*1069 FILLER_0_15_113
*1070 FILLER_0_15_122
*1071 FILLER_0_15_140
*1072 FILLER_0_15_162
*1073 FILLER_0_15_186
*1074 FILLER_0_15_216
*1075 FILLER_0_15_245
*1076 FILLER_0_15_253
*1077 FILLER_0_15_3
*1078 FILLER_0_15_305
*1079 FILLER_0_15_317
*1080 FILLER_0_15_329
*1081 FILLER_0_15_49
*1082 FILLER_0_15_55
*1083 FILLER_0_15_91
*1084 FILLER_0_15_99
*1085 FILLER_0_16_102
*1086 FILLER_0_16_11
*1087 FILLER_0_16_138
*1088 FILLER_0_16_141
*1089 FILLER_0_16_156
*1090 FILLER_0_16_161
*1091 FILLER_0_16_169
*1092 FILLER_0_16_180
*1093 FILLER_0_16_186
*1094 FILLER_0_16_195
*1095 FILLER_0_16_200
*1096 FILLER_0_16_212
*1097 FILLER_0_16_245
*1098 FILLER_0_16_251
*1099 FILLER_0_16_253
*1100 FILLER_0_16_281
*1101 FILLER_0_16_293
*1102 FILLER_0_16_3
*1103 FILLER_0_16_305
*1104 FILLER_0_16_309
*1105 FILLER_0_16_321
*1106 FILLER_0_16_333
*1107 FILLER_0_16_48
*1108 FILLER_0_16_60
*1109 FILLER_0_16_81
*1110 FILLER_0_17_111
*1111 FILLER_0_17_142
*1112 FILLER_0_17_15
*1113 FILLER_0_17_154
*1114 FILLER_0_17_164
*1115 FILLER_0_17_178
*1116 FILLER_0_17_209
*1117 FILLER_0_17_221
*1118 FILLER_0_17_225
*1119 FILLER_0_17_237
*1120 FILLER_0_17_249
*1121 FILLER_0_17_261
*1122 FILLER_0_17_273
*1123 FILLER_0_17_279
*1124 FILLER_0_17_281
*1125 FILLER_0_17_293
*1126 FILLER_0_17_3
*1127 FILLER_0_17_305
*1128 FILLER_0_17_317
*1129 FILLER_0_17_329
*1130 FILLER_0_17_35
*1131 FILLER_0_17_39
*1132 FILLER_0_17_51
*1133 FILLER_0_17_55
*1134 FILLER_0_17_57
*1135 FILLER_0_17_61
*1136 FILLER_0_17_73
*1137 FILLER_0_18_104
*1138 FILLER_0_18_133
*1139 FILLER_0_18_139
*1140 FILLER_0_18_141
*1141 FILLER_0_18_15
*1142 FILLER_0_18_186
*1143 FILLER_0_18_213
*1144 FILLER_0_18_241
*1145 FILLER_0_18_249
*1146 FILLER_0_18_253
*1147 FILLER_0_18_257
*1148 FILLER_0_18_27
*1149 FILLER_0_18_274
*1150 FILLER_0_18_280
*1151 FILLER_0_18_284
*1152 FILLER_0_18_288
*1153 FILLER_0_18_29
*1154 FILLER_0_18_3
*1155 FILLER_0_18_300
*1156 FILLER_0_18_309
*1157 FILLER_0_18_321
*1158 FILLER_0_18_333
*1159 FILLER_0_18_41
*1160 FILLER_0_18_53
*1161 FILLER_0_18_65
*1162 FILLER_0_18_69
*1163 FILLER_0_18_73
*1164 FILLER_0_18_81
*1165 FILLER_0_18_85
*1166 FILLER_0_18_89
*1167 FILLER_0_19_107
*1168 FILLER_0_19_111
*1169 FILLER_0_19_113
*1170 FILLER_0_19_121
*1171 FILLER_0_19_130
*1172 FILLER_0_19_142
*1173 FILLER_0_19_15
*1174 FILLER_0_19_153
*1175 FILLER_0_19_160
*1176 FILLER_0_19_166
*1177 FILLER_0_19_177
*1178 FILLER_0_19_189
*1179 FILLER_0_19_27
*1180 FILLER_0_19_3
*1181 FILLER_0_19_304
*1182 FILLER_0_19_308
*1183 FILLER_0_19_325
*1184 FILLER_0_19_333
*1185 FILLER_0_1_111
*1186 FILLER_0_1_129
*1187 FILLER_0_1_135
*1188 FILLER_0_1_15
*1189 FILLER_0_1_185
*1190 FILLER_0_1_222
*1191 FILLER_0_1_225
*1192 FILLER_0_1_237
*1193 FILLER_0_1_249
*1194 FILLER_0_1_261
*1195 FILLER_0_1_27
*1196 FILLER_0_1_273
*1197 FILLER_0_1_279
*1198 FILLER_0_1_281
*1199 FILLER_0_1_293
*1200 FILLER_0_1_3
*1201 FILLER_0_1_305
*1202 FILLER_0_1_317
*1203 FILLER_0_1_329
*1204 FILLER_0_1_39
*1205 FILLER_0_1_51
*1206 FILLER_0_1_55
*1207 FILLER_0_1_57
*1208 FILLER_0_1_69
*1209 FILLER_0_1_81
*1210 FILLER_0_1_93
*1211 FILLER_0_20_137
*1212 FILLER_0_20_144
*1213 FILLER_0_20_15
*1214 FILLER_0_20_187
*1215 FILLER_0_20_195
*1216 FILLER_0_20_197
*1217 FILLER_0_20_211
*1218 FILLER_0_20_223
*1219 FILLER_0_20_233
*1220 FILLER_0_20_250
*1221 FILLER_0_20_253
*1222 FILLER_0_20_27
*1223 FILLER_0_20_297
*1224 FILLER_0_20_3
*1225 FILLER_0_20_306
*1226 FILLER_0_20_325
*1227 FILLER_0_20_333
*1228 FILLER_0_20_57
*1229 FILLER_0_20_77
*1230 FILLER_0_20_83
*1231 FILLER_0_20_93
*1232 FILLER_0_21_113
*1233 FILLER_0_21_125
*1234 FILLER_0_21_133
*1235 FILLER_0_21_147
*1236 FILLER_0_21_15
*1237 FILLER_0_21_153
*1238 FILLER_0_21_157
*1239 FILLER_0_21_163
*1240 FILLER_0_21_167
*1241 FILLER_0_21_169
*1242 FILLER_0_21_180
*1243 FILLER_0_21_188
*1244 FILLER_0_21_216
*1245 FILLER_0_21_225
*1246 FILLER_0_21_247
*1247 FILLER_0_21_259
*1248 FILLER_0_21_263
*1249 FILLER_0_21_27
*1250 FILLER_0_21_281
*1251 FILLER_0_21_293
*1252 FILLER_0_21_3
*1253 FILLER_0_21_301
*1254 FILLER_0_21_305
*1255 FILLER_0_21_332
*1256 FILLER_0_21_57
*1257 FILLER_0_21_64
*1258 FILLER_0_21_83
*1259 FILLER_0_21_90
*1260 FILLER_0_21_97
*1261 FILLER_0_22_101
*1262 FILLER_0_22_113
*1263 FILLER_0_22_121
*1264 FILLER_0_22_141
*1265 FILLER_0_22_15
*1266 FILLER_0_22_167
*1267 FILLER_0_22_200
*1268 FILLER_0_22_217
*1269 FILLER_0_22_229
*1270 FILLER_0_22_241
*1271 FILLER_0_22_249
*1272 FILLER_0_22_253
*1273 FILLER_0_22_257
*1274 FILLER_0_22_261
*1275 FILLER_0_22_27
*1276 FILLER_0_22_273
*1277 FILLER_0_22_283
*1278 FILLER_0_22_29
*1279 FILLER_0_22_295
*1280 FILLER_0_22_3
*1281 FILLER_0_22_307
*1282 FILLER_0_22_309
*1283 FILLER_0_22_321
*1284 FILLER_0_22_330
*1285 FILLER_0_22_334
*1286 FILLER_0_22_35
*1287 FILLER_0_22_39
*1288 FILLER_0_22_45
*1289 FILLER_0_22_55
*1290 FILLER_0_22_67
*1291 FILLER_0_22_79
*1292 FILLER_0_22_83
*1293 FILLER_0_23_103
*1294 FILLER_0_23_111
*1295 FILLER_0_23_117
*1296 FILLER_0_23_136
*1297 FILLER_0_23_148
*1298 FILLER_0_23_15
*1299 FILLER_0_23_156
*1300 FILLER_0_23_166
*1301 FILLER_0_23_172
*1302 FILLER_0_23_193
*1303 FILLER_0_23_205
*1304 FILLER_0_23_213
*1305 FILLER_0_23_218
*1306 FILLER_0_23_225
*1307 FILLER_0_23_243
*1308 FILLER_0_23_251
*1309 FILLER_0_23_27
*1310 FILLER_0_23_272
*1311 FILLER_0_23_281
*1312 FILLER_0_23_293
*1313 FILLER_0_23_3
*1314 FILLER_0_23_307
*1315 FILLER_0_23_326
*1316 FILLER_0_23_334
*1317 FILLER_0_23_35
*1318 FILLER_0_23_52
*1319 FILLER_0_23_65
*1320 FILLER_0_23_71
*1321 FILLER_0_24_125
*1322 FILLER_0_24_129
*1323 FILLER_0_24_135
*1324 FILLER_0_24_139
*1325 FILLER_0_24_147
*1326 FILLER_0_24_15
*1327 FILLER_0_24_155
*1328 FILLER_0_24_184
*1329 FILLER_0_24_193
*1330 FILLER_0_24_204
*1331 FILLER_0_24_216
*1332 FILLER_0_24_27
*1333 FILLER_0_24_277
*1334 FILLER_0_24_281
*1335 FILLER_0_24_29
*1336 FILLER_0_24_3
*1337 FILLER_0_24_307
*1338 FILLER_0_24_329
*1339 FILLER_0_24_61
*1340 FILLER_0_24_78
*1341 FILLER_0_24_97
*1342 FILLER_0_25_109
*1343 FILLER_0_25_146
*1344 FILLER_0_25_15
*1345 FILLER_0_25_167
*1346 FILLER_0_25_181
*1347 FILLER_0_25_185
*1348 FILLER_0_25_203
*1349 FILLER_0_25_215
*1350 FILLER_0_25_244
*1351 FILLER_0_25_252
*1352 FILLER_0_25_260
*1353 FILLER_0_25_27
*1354 FILLER_0_25_272
*1355 FILLER_0_25_295
*1356 FILLER_0_25_3
*1357 FILLER_0_25_326
*1358 FILLER_0_25_334
*1359 FILLER_0_25_35
*1360 FILLER_0_25_52
*1361 FILLER_0_25_66
*1362 FILLER_0_25_78
*1363 FILLER_0_26_101
*1364 FILLER_0_26_136
*1365 FILLER_0_26_15
*1366 FILLER_0_26_150
*1367 FILLER_0_26_157
*1368 FILLER_0_26_174
*1369 FILLER_0_26_182
*1370 FILLER_0_26_195
*1371 FILLER_0_26_210
*1372 FILLER_0_26_228
*1373 FILLER_0_26_250
*1374 FILLER_0_26_253
*1375 FILLER_0_26_27
*1376 FILLER_0_26_29
*1377 FILLER_0_26_297
*1378 FILLER_0_26_3
*1379 FILLER_0_26_305
*1380 FILLER_0_26_309
*1381 FILLER_0_26_321
*1382 FILLER_0_26_333
*1383 FILLER_0_26_58
*1384 FILLER_0_26_70
*1385 FILLER_0_26_82
*1386 FILLER_0_26_85
*1387 FILLER_0_27_145
*1388 FILLER_0_27_15
*1389 FILLER_0_27_163
*1390 FILLER_0_27_167
*1391 FILLER_0_27_169
*1392 FILLER_0_27_181
*1393 FILLER_0_27_185
*1394 FILLER_0_27_207
*1395 FILLER_0_27_215
*1396 FILLER_0_27_223
*1397 FILLER_0_27_225
*1398 FILLER_0_27_229
*1399 FILLER_0_27_248
*1400 FILLER_0_27_260
*1401 FILLER_0_27_27
*1402 FILLER_0_27_276
*1403 FILLER_0_27_3
*1404 FILLER_0_27_328
*1405 FILLER_0_27_334
*1406 FILLER_0_27_35
*1407 FILLER_0_27_57
*1408 FILLER_0_27_73
*1409 FILLER_0_27_85
*1410 FILLER_0_27_91
*1411 FILLER_0_28_103
*1412 FILLER_0_28_136
*1413 FILLER_0_28_15
*1414 FILLER_0_28_153
*1415 FILLER_0_28_165
*1416 FILLER_0_28_171
*1417 FILLER_0_28_177
*1418 FILLER_0_28_207
*1419 FILLER_0_28_222
*1420 FILLER_0_28_253
*1421 FILLER_0_28_27
*1422 FILLER_0_28_288
*1423 FILLER_0_28_29
*1424 FILLER_0_28_3
*1425 FILLER_0_28_309
*1426 FILLER_0_28_329
*1427 FILLER_0_28_76
*1428 FILLER_0_28_91
*1429 FILLER_0_28_98
*1430 FILLER_0_29_102
*1431 FILLER_0_29_110
*1432 FILLER_0_29_113
*1433 FILLER_0_29_128
*1434 FILLER_0_29_140
*1435 FILLER_0_29_146
*1436 FILLER_0_29_15
*1437 FILLER_0_29_151
*1438 FILLER_0_29_157
*1439 FILLER_0_29_161
*1440 FILLER_0_29_177
*1441 FILLER_0_29_183
*1442 FILLER_0_29_212
*1443 FILLER_0_29_225
*1444 FILLER_0_29_240
*1445 FILLER_0_29_259
*1446 FILLER_0_29_279
*1447 FILLER_0_29_3
*1448 FILLER_0_29_306
*1449 FILLER_0_29_323
*1450 FILLER_0_29_334
*1451 FILLER_0_29_55
*1452 FILLER_0_29_66
*1453 FILLER_0_2_141
*1454 FILLER_0_2_15
*1455 FILLER_0_2_186
*1456 FILLER_0_2_233
*1457 FILLER_0_2_237
*1458 FILLER_0_2_249
*1459 FILLER_0_2_253
*1460 FILLER_0_2_265
*1461 FILLER_0_2_27
*1462 FILLER_0_2_277
*1463 FILLER_0_2_289
*1464 FILLER_0_2_29
*1465 FILLER_0_2_3
*1466 FILLER_0_2_301
*1467 FILLER_0_2_307
*1468 FILLER_0_2_309
*1469 FILLER_0_2_321
*1470 FILLER_0_2_333
*1471 FILLER_0_2_41
*1472 FILLER_0_2_71
*1473 FILLER_0_2_83
*1474 FILLER_0_2_85
*1475 FILLER_0_30_118
*1476 FILLER_0_30_134
*1477 FILLER_0_30_141
*1478 FILLER_0_30_15
*1479 FILLER_0_30_195
*1480 FILLER_0_30_200
*1481 FILLER_0_30_212
*1482 FILLER_0_30_227
*1483 FILLER_0_30_259
*1484 FILLER_0_30_27
*1485 FILLER_0_30_271
*1486 FILLER_0_30_283
*1487 FILLER_0_30_295
*1488 FILLER_0_30_3
*1489 FILLER_0_30_301
*1490 FILLER_0_30_332
*1491 FILLER_0_30_54
*1492 FILLER_0_31_110
*1493 FILLER_0_31_15
*1494 FILLER_0_31_150
*1495 FILLER_0_31_162
*1496 FILLER_0_31_166
*1497 FILLER_0_31_177
*1498 FILLER_0_31_187
*1499 FILLER_0_31_199
*1500 FILLER_0_31_211
*1501 FILLER_0_31_225
*1502 FILLER_0_31_229
*1503 FILLER_0_31_238
*1504 FILLER_0_31_259
*1505 FILLER_0_31_27
*1506 FILLER_0_31_271
*1507 FILLER_0_31_281
*1508 FILLER_0_31_295
*1509 FILLER_0_31_3
*1510 FILLER_0_31_304
*1511 FILLER_0_31_315
*1512 FILLER_0_31_327
*1513 FILLER_0_31_35
*1514 FILLER_0_31_39
*1515 FILLER_0_31_47
*1516 FILLER_0_31_57
*1517 FILLER_0_31_69
*1518 FILLER_0_31_75
*1519 FILLER_0_31_79
*1520 FILLER_0_31_85
*1521 FILLER_0_32_101
*1522 FILLER_0_32_105
*1523 FILLER_0_32_122
*1524 FILLER_0_32_137
*1525 FILLER_0_32_15
*1526 FILLER_0_32_158
*1527 FILLER_0_32_170
*1528 FILLER_0_32_197
*1529 FILLER_0_32_205
*1530 FILLER_0_32_212
*1531 FILLER_0_32_216
*1532 FILLER_0_32_221
*1533 FILLER_0_32_235
*1534 FILLER_0_32_246
*1535 FILLER_0_32_253
*1536 FILLER_0_32_261
*1537 FILLER_0_32_27
*1538 FILLER_0_32_278
*1539 FILLER_0_32_29
*1540 FILLER_0_32_292
*1541 FILLER_0_32_3
*1542 FILLER_0_32_304
*1543 FILLER_0_32_326
*1544 FILLER_0_32_55
*1545 FILLER_0_32_73
*1546 FILLER_0_32_81
*1547 FILLER_0_32_85
*1548 FILLER_0_32_90
*1549 FILLER_0_33_110
*1550 FILLER_0_33_113
*1551 FILLER_0_33_117
*1552 FILLER_0_33_15
*1553 FILLER_0_33_161
*1554 FILLER_0_33_167
*1555 FILLER_0_33_169
*1556 FILLER_0_33_199
*1557 FILLER_0_33_203
*1558 FILLER_0_33_253
*1559 FILLER_0_33_261
*1560 FILLER_0_33_27
*1561 FILLER_0_33_281
*1562 FILLER_0_33_285
*1563 FILLER_0_33_3
*1564 FILLER_0_33_314
*1565 FILLER_0_33_331
*1566 FILLER_0_33_38
*1567 FILLER_0_33_73
*1568 FILLER_0_33_77
*1569 FILLER_0_34_106
*1570 FILLER_0_34_118
*1571 FILLER_0_34_130
*1572 FILLER_0_34_15
*1573 FILLER_0_34_150
*1574 FILLER_0_34_159
*1575 FILLER_0_34_194
*1576 FILLER_0_34_197
*1577 FILLER_0_34_217
*1578 FILLER_0_34_223
*1579 FILLER_0_34_231
*1580 FILLER_0_34_237
*1581 FILLER_0_34_249
*1582 FILLER_0_34_257
*1583 FILLER_0_34_268
*1584 FILLER_0_34_27
*1585 FILLER_0_34_287
*1586 FILLER_0_34_29
*1587 FILLER_0_34_3
*1588 FILLER_0_34_326
*1589 FILLER_0_34_334
*1590 FILLER_0_34_71
*1591 FILLER_0_34_83
*1592 FILLER_0_35_121
*1593 FILLER_0_35_133
*1594 FILLER_0_35_15
*1595 FILLER_0_35_167
*1596 FILLER_0_35_169
*1597 FILLER_0_35_175
*1598 FILLER_0_35_212
*1599 FILLER_0_35_216
*1600 FILLER_0_35_225
*1601 FILLER_0_35_237
*1602 FILLER_0_35_247
*1603 FILLER_0_35_267
*1604 FILLER_0_35_27
*1605 FILLER_0_35_276
*1606 FILLER_0_35_3
*1607 FILLER_0_35_303
*1608 FILLER_0_35_331
*1609 FILLER_0_35_39
*1610 FILLER_0_35_51
*1611 FILLER_0_35_60
*1612 FILLER_0_35_72
*1613 FILLER_0_35_81
*1614 FILLER_0_35_92
*1615 FILLER_0_36_126
*1616 FILLER_0_36_15
*1617 FILLER_0_36_171
*1618 FILLER_0_36_194
*1619 FILLER_0_36_197
*1620 FILLER_0_36_209
*1621 FILLER_0_36_213
*1622 FILLER_0_36_220
*1623 FILLER_0_36_248
*1624 FILLER_0_36_27
*1625 FILLER_0_36_29
*1626 FILLER_0_36_297
*1627 FILLER_0_36_3
*1628 FILLER_0_36_334
*1629 FILLER_0_36_41
*1630 FILLER_0_36_53
*1631 FILLER_0_36_65
*1632 FILLER_0_36_85
*1633 FILLER_0_36_99
*1634 FILLER_0_37_102
*1635 FILLER_0_37_113
*1636 FILLER_0_37_123
*1637 FILLER_0_37_131
*1638 FILLER_0_37_15
*1639 FILLER_0_37_150
*1640 FILLER_0_37_160
*1641 FILLER_0_37_169
*1642 FILLER_0_37_181
*1643 FILLER_0_37_205
*1644 FILLER_0_37_223
*1645 FILLER_0_37_225
*1646 FILLER_0_37_27
*1647 FILLER_0_37_278
*1648 FILLER_0_37_3
*1649 FILLER_0_37_329
*1650 FILLER_0_37_39
*1651 FILLER_0_37_51
*1652 FILLER_0_37_55
*1653 FILLER_0_37_57
*1654 FILLER_0_37_69
*1655 FILLER_0_37_81
*1656 FILLER_0_37_87
*1657 FILLER_0_38_10
*1658 FILLER_0_38_104
*1659 FILLER_0_38_113
*1660 FILLER_0_38_125
*1661 FILLER_0_38_134
*1662 FILLER_0_38_14
*1663 FILLER_0_38_144