*SPEF "ieee 1481-1999"
*DESIGN "tt_um_fstolzcode"
*DATE "20:19:26 Friday April 12, 2024"
*VENDOR "The OpenROAD Project"
*PROGRAM "OpenROAD"
*VERSION "0889970d1790a2617e69f253221b8bd7626e51dc"
*DESIGN_FLOW "NAME_SCOPE LOCAL" "PIN_CAP NONE"
*DIVIDER /
*DELIMITER :
*BUS_DELIMITER []
*T_UNIT 1 NS
*C_UNIT 1 PF
*R_UNIT 1 OHM
*L_UNIT 1 HENRY

*NAME_MAP
*3 clk
*4 ena
*5 rst_n
*6 ui_in[0]
*7 ui_in[1]
*8 ui_in[2]
*9 ui_in[3]
*10 ui_in[4]
*11 ui_in[5]
*12 ui_in[6]
*13 ui_in[7]
*14 uio_in[0]
*15 uio_in[1]
*16 uio_in[2]
*17 uio_in[3]
*18 uio_in[4]
*19 uio_in[5]
*20 uio_in[6]
*21 uio_in[7]
*22 net5
*23 net6
*24 net7
*25 net8
*26 net9
*27 net10
*28 net11
*29 net12
*30 net13
*31 net14
*32 net15
*33 net16
*34 net17
*35 net18
*36 net19
*37 net20
*38 net21
*39 net22
*40 net23
*41 net24
*42 uo_out[4]
*43 net25
*44 net26
*45 net27
*46 _0000_
*47 _0001_
*48 _0002_
*49 _0003_
*50 _0004_
*51 _0005_
*52 _0006_
*53 _0007_
*54 _0008_
*55 _0009_
*56 _0010_
*57 _0011_
*58 _0012_
*59 _0013_
*60 _0014_
*61 _0015_
*62 _0016_
*63 _0017_
*64 _0018_
*65 _0019_
*66 _0020_
*67 _0021_
*68 _0022_
*69 _0023_
*70 _0024_
*71 _0025_
*72 _0026_
*73 _0027_
*74 _0028_
*75 _0029_
*76 _0030_
*77 _0031_
*78 _0032_
*79 _0033_
*80 _0034_
*81 _0035_
*82 _0036_
*83 _0037_
*84 _0038_
*85 _0039_
*86 _0040_
*87 _0041_
*88 _0042_
*89 _0043_
*90 _0044_
*91 _0045_
*92 _0046_
*93 _0047_
*94 _0048_
*95 _0049_
*96 _0050_
*97 _0051_
*98 _0052_
*99 _0053_
*100 _0054_
*101 _0055_
*102 _0056_
*103 _0057_
*104 _0058_
*105 _0059_
*106 _0060_
*107 _0061_
*108 _0062_
*109 _0063_
*110 _0064_
*111 _0065_
*112 _0066_
*113 _0067_
*114 _0068_
*115 _0069_
*116 _0070_
*117 _0071_
*118 _0072_
*119 _0073_
*120 _0074_
*121 _0075_
*122 _0076_
*123 _0077_
*124 _0078_
*125 _0079_
*126 _0080_
*127 _0081_
*128 _0082_
*129 _0083_
*130 _0084_
*131 _0085_
*132 _0086_
*133 _0087_
*134 _0088_
*135 _0089_
*136 _0090_
*137 _0091_
*138 _0092_
*139 _0093_
*140 _0094_
*141 _0095_
*142 _0096_
*143 _0097_
*144 _0098_
*145 _0099_
*146 _0100_
*147 _0101_
*148 _0102_
*149 _0103_
*150 _0104_
*151 _0105_
*152 _0106_
*153 _0107_
*154 _0108_
*155 _0109_
*156 _0110_
*157 _0111_
*158 _0112_
*159 _0113_
*160 _0114_
*161 _0115_
*162 _0116_
*163 _0117_
*164 _0118_
*165 _0119_
*166 _0120_
*167 _0121_
*168 _0122_
*169 _0123_
*170 _0124_
*171 _0125_
*172 _0126_
*173 _0127_
*174 _0128_
*175 _0129_
*176 _0130_
*177 _0131_
*178 _0132_
*179 _0133_
*180 _0134_
*181 _0135_
*182 _0136_
*183 _0137_
*184 _0138_
*185 _0139_
*186 _0140_
*187 _0141_
*188 _0142_
*189 _0143_
*190 _0144_
*191 _0145_
*192 _0146_
*193 _0147_
*194 _0148_
*195 _0149_
*196 _0150_
*197 _0151_
*198 _0152_
*199 _0153_
*200 _0154_
*201 _0155_
*202 _0156_
*203 _0157_
*204 _0158_
*205 _0159_
*206 _0160_
*207 _0161_
*208 _0162_
*209 _0163_
*210 _0164_
*211 _0165_
*212 _0166_
*213 _0167_
*214 _0168_
*215 _0169_
*216 _0170_
*217 _0171_
*218 _0172_
*219 _0173_
*220 _0174_
*221 _0175_
*222 _0176_
*223 _0177_
*224 _0178_
*225 _0179_
*226 _0180_
*227 _0181_
*228 _0182_
*229 _0183_
*230 _0184_
*231 _0185_
*232 _0186_
*233 _0187_
*234 _0188_
*235 _0189_
*236 _0190_
*237 _0191_
*238 _0192_
*239 _0193_
*240 _0194_
*241 _0195_
*242 _0196_
*243 _0197_
*244 _0198_
*245 _0199_
*246 _0200_
*247 _0201_
*248 _0202_
*249 _0203_
*250 _0204_
*251 _0205_
*252 _0206_
*253 _0207_
*254 _0208_
*255 _0209_
*256 _0210_
*257 _0211_
*258 _0212_
*259 _0213_
*260 _0214_
*261 _0215_
*262 _0216_
*263 _0217_
*264 _0218_
*265 _0219_
*266 _0220_
*267 _0221_
*268 _0222_
*269 _0223_
*270 _0224_
*271 _0225_
*272 _0226_
*273 _0227_
*274 _0228_
*275 _0229_
*276 _0230_
*277 _0231_
*278 _0232_
*279 _0233_
*280 _0234_
*281 _0235_
*282 _0236_
*283 _0237_
*284 _0238_
*285 _0239_
*286 _0240_
*287 _0241_
*288 _0242_
*289 _0243_
*290 _0244_
*291 _0245_
*292 _0246_
*293 _0247_
*294 _0248_
*295 _0249_
*296 _0250_
*297 _0251_
*298 _0252_
*299 _0253_
*300 _0254_
*301 _0255_
*302 _0256_
*303 _0257_
*304 _0258_
*305 _0259_
*306 _0260_
*307 _0261_
*308 _0262_
*309 _0263_
*310 _0264_
*311 _0265_
*312 _0266_
*313 _0267_
*314 _0268_
*315 _0269_
*316 _0270_
*317 _0271_
*318 _0272_
*319 _0273_
*320 _0274_
*321 _0275_
*322 _0276_
*323 _0277_
*324 _0278_
*325 _0279_
*326 _0280_
*327 _0281_
*328 _0282_
*329 _0283_
*330 _0284_
*331 _0285_
*332 _0286_
*333 _0287_
*334 _0288_
*335 _0289_
*336 _0290_
*337 _0291_
*338 _0292_
*339 _0293_
*340 _0294_
*341 _0295_
*342 _0296_
*343 _0297_
*344 _0298_
*345 _0299_
*346 _0300_
*347 _0301_
*348 _0302_
*349 _0303_
*350 _0304_
*351 _0305_
*352 _0306_
*353 _0307_
*354 _0308_
*355 _0309_
*356 _0310_
*357 _0311_
*358 _0312_
*359 _0313_
*360 _0314_
*361 _0315_
*362 _0316_
*363 _0317_
*364 _0318_
*365 _0319_
*366 _0320_
*367 _0321_
*368 _0322_
*369 _0323_
*370 _0324_
*371 _0325_
*372 _0326_
*373 _0327_
*374 _0328_
*375 _0329_
*376 _0330_
*377 _0331_
*378 _0332_
*379 _0333_
*380 _0334_
*381 _0335_
*382 _0336_
*383 _0337_
*384 _0338_
*385 _0339_
*386 _0340_
*387 _0341_
*388 _0342_
*389 _0343_
*390 _0344_
*391 _0345_
*392 _0346_
*393 _0347_
*394 _0348_
*395 _0349_
*396 _0350_
*397 _0351_
*398 _0352_
*399 _0353_
*400 _0354_
*401 _0355_
*402 _0356_
*403 _0357_
*404 _0358_
*405 _0359_
*406 _0360_
*407 _0361_
*408 _0362_
*409 _0363_
*410 _0364_
*411 _0365_
*412 _0366_
*413 _0367_
*414 _0368_
*415 _0369_
*416 _0370_
*417 _0371_
*418 _0372_
*419 _0373_
*420 _0374_
*421 _0375_
*422 _0376_
*423 _0377_
*424 _0378_
*425 _0379_
*426 _0380_
*427 _0381_
*428 _0382_
*429 _0383_
*430 _0384_
*431 _0385_
*432 _0386_
*433 _0387_
*434 _0388_
*435 _0389_
*436 _0390_
*437 _0391_
*438 _0392_
*439 _0393_
*440 _0394_
*441 _0395_
*442 _0396_
*443 _0397_
*444 _0398_
*445 _0399_
*446 _0400_
*447 _0401_
*448 _0402_
*449 _0403_
*450 _0404_
*451 _0405_
*452 _0406_
*453 _0407_
*454 _0408_
*455 _0409_
*456 _0410_
*457 _0411_
*458 _0412_
*459 _0413_
*460 _0414_
*461 _0415_
*462 _0416_
*463 _0417_
*464 _0418_
*465 _0419_
*466 _0420_
*467 _0421_
*468 _0422_
*469 _0423_
*470 _0424_
*471 _0425_
*472 _0426_
*473 _0427_
*474 _0428_
*475 _0429_
*476 _0430_
*477 _0431_
*478 _0432_
*479 _0433_
*480 _0434_
*481 _0435_
*482 _0436_
*483 _0437_
*484 _0438_
*485 _0439_
*486 _0440_
*487 _0441_
*488 _0442_
*489 _0443_
*490 _0444_
*491 _0445_
*492 _0446_
*493 _0447_
*494 _0448_
*495 _0449_
*496 _0450_
*497 _0451_
*498 _0452_
*499 _0453_
*500 _0454_
*501 _0455_
*502 _0456_
*503 _0457_
*504 _0458_
*505 _0459_
*506 _0460_
*507 _0461_
*508 _0462_
*509 _0463_
*510 _0464_
*511 _0465_
*512 _0466_
*513 _0467_
*514 _0468_
*515 _0469_
*516 _0470_
*517 _0471_
*518 _0472_
*519 _0473_
*520 _0474_
*521 _0475_
*522 _0476_
*523 _0477_
*524 _0478_
*525 _0479_
*526 _0480_
*527 _0481_
*528 _0482_
*529 _0483_
*530 _0484_
*531 _0485_
*532 _0486_
*533 _0487_
*534 _0488_
*535 _0489_
*536 _0490_
*537 _0491_
*538 _0492_
*539 _0493_
*540 _0494_
*541 _0495_
*542 _0496_
*543 _0497_
*544 _0498_
*545 _0499_
*546 _0500_
*547 _0501_
*548 _0502_
*549 _0503_
*550 _0504_
*551 _0505_
*552 _0506_
*553 _0507_
*554 _0508_
*555 _0509_
*556 _0510_
*557 _0511_
*558 _0512_
*559 _0513_
*560 _0514_
*561 _0515_
*562 _0516_
*563 _0517_
*564 _0518_
*565 _0519_
*566 _0520_
*567 _0521_
*568 _0522_
*569 _0523_
*570 _0524_
*571 _0525_
*572 _0526_
*573 _0527_
*574 _0528_
*575 _0529_
*576 _0530_
*577 _0531_
*578 _0532_
*579 _0533_
*580 _0534_
*581 _0535_
*582 _0536_
*583 _0537_
*584 _0538_
*585 _0539_
*586 _0540_
*587 _0541_
*588 _0542_
*589 _0543_
*590 _0544_
*591 _0545_
*592 _0546_
*593 _0547_
*594 _0548_
*595 _0549_
*596 _0550_
*597 _0551_
*598 _0552_
*599 _0553_
*600 _0554_
*601 _0555_
*602 _0556_
*603 _0557_
*604 _0558_
*605 _0559_
*606 _0560_
*607 _0561_
*608 _0562_
*609 _0563_
*610 _0564_
*611 _0565_
*612 _0566_
*613 _0567_
*614 _0568_
*615 _0569_
*616 _0570_
*617 _0571_
*618 _0572_
*619 _0573_
*620 _0574_
*621 _0575_
*622 _0576_
*623 _0577_
*624 _0578_
*625 _0579_
*626 _0580_
*627 _0581_
*628 _0582_
*629 _0583_
*630 _0584_
*631 _0585_
*632 _0586_
*633 _0587_
*634 _0588_
*635 _0589_
*636 _0590_
*637 _0591_
*638 _0592_
*639 _0593_
*640 _0594_
*641 _0595_
*642 _0596_
*643 _0597_
*644 _0598_
*645 _0599_
*646 _0600_
*647 _0601_
*648 _0602_
*649 _0603_
*650 _0604_
*651 _0605_
*652 _0606_
*653 _0607_
*654 _0608_
*655 _0609_
*656 _0610_
*657 _0611_
*658 _0612_
*659 _0613_
*660 _0614_
*661 _0615_
*662 _0616_
*663 _0617_
*664 _0618_
*665 _0619_
*666 _0620_
*667 _0621_
*668 _0622_
*669 _0623_
*670 _0624_
*671 _0625_
*672 _0626_
*673 _0627_
*674 _0628_
*675 _0629_
*676 _0630_
*677 _0631_
*678 _0632_
*679 _0633_
*680 _0634_
*681 _0635_
*682 _0636_
*683 _0637_
*684 _0638_
*685 _0639_
*686 _0640_
*687 _0641_
*688 _0642_
*689 _0643_
*690 _0644_
*691 _0645_
*692 _0646_
*693 _0647_
*694 _0648_
*695 _0649_
*696 _0650_
*697 _0651_
*698 _0652_
*699 _0653_
*700 _0654_
*701 _0655_
*702 _0656_
*703 _0657_
*704 _0658_
*705 _0659_
*706 _0660_
*707 _0661_
*708 _0662_
*709 _0663_
*710 _0664_
*711 _0665_
*712 _0666_
*713 _0667_
*714 _0668_
*715 _0669_
*716 _0670_
*717 _0671_
*718 _0672_
*719 _0673_
*720 _0674_
*721 _0675_
*722 _0676_
*723 _0677_
*724 _0678_
*725 _0679_
*726 _0680_
*727 _0681_
*728 _0682_
*729 _0683_
*730 _0684_
*731 _0685_
*732 _0686_
*733 _0687_
*734 _0688_
*735 _0689_
*736 _0690_
*737 _0691_
*738 _0692_
*739 _0693_
*740 _0694_
*741 _0695_
*742 _0696_
*743 _0697_
*744 _0698_
*745 _0699_
*746 _0700_
*747 _0701_
*748 _0702_
*749 _0703_
*750 _0704_
*751 _0705_
*752 _0706_
*753 _0707_
*754 _0708_
*755 _0709_
*756 _0710_
*757 _0711_
*758 _0712_
*759 _0713_
*760 _0714_
*761 _0715_
*762 _0716_
*763 _0717_
*764 _0718_
*765 _0719_
*766 _0720_
*767 _0721_
*768 _0722_
*769 _0723_
*770 _0724_
*771 _0725_
*772 _0726_
*773 _0727_
*774 _0728_
*775 _0729_
*776 _0730_
*777 _0731_
*778 _0732_
*779 _0733_
*780 _0734_
*781 _0735_
*782 _0736_
*783 _0737_
*784 _0738_
*785 _0739_
*786 _0740_
*787 _0741_
*788 _0742_
*789 _0743_
*790 _0744_
*791 _0745_
*792 _0746_
*793 _0747_
*794 _0748_
*795 _0749_
*796 _0750_
*797 _0751_
*798 _0752_
*799 _0753_
*800 _0754_
*801 _0755_
*802 _0756_
*803 _0757_
*804 _0758_
*805 _0759_
*806 _0760_
*807 _0761_
*808 _0762_
*809 _0763_
*810 _0764_
*811 _0765_
*812 _0766_
*813 _0767_
*814 _0768_
*815 _0769_
*816 _0770_
*817 _0771_
*818 _0772_
*819 _0773_
*820 _0774_
*821 _0775_
*822 _0776_
*823 _0777_
*824 _0778_
*825 _0779_
*826 _0780_
*827 _0781_
*828 _0782_
*829 _0783_
*830 _0784_
*831 _0785_
*832 _0786_
*833 _0787_
*834 _0788_
*835 _0789_
*836 _0790_
*837 _0791_
*838 _0792_
*839 _0793_
*840 _0794_
*841 _0795_
*842 _0796_
*843 _0797_
*844 _0798_
*845 _0799_
*846 _0800_
*847 _0801_
*848 _0802_
*849 _0803_
*850 _0804_
*851 _0805_
*852 _0806_
*853 _0807_
*854 _0808_
*855 _0809_
*856 _0810_
*857 _0811_
*858 _0812_
*859 _0813_
*860 _0814_
*861 _0815_
*862 _0816_
*863 _0817_
*864 _0818_
*865 _0819_
*866 _0820_
*867 _0821_
*868 _0822_
*869 _0823_
*870 _0824_
*871 _0825_
*872 _0826_
*873 _0827_
*874 _0828_
*875 _0829_
*876 _0830_
*877 _0831_
*878 _0832_
*879 _0833_
*880 _0834_
*881 _0835_
*882 _0836_
*883 _0837_
*884 _0838_
*885 _0839_
*886 _0840_
*887 _0841_
*888 _0842_
*889 _0843_
*890 _0844_
*891 _0845_
*892 _0846_
*893 _0847_
*894 _0848_
*895 _0849_
*896 _0850_
*897 _0851_
*898 _0852_
*899 _0853_
*900 _0854_
*901 _0855_
*902 _0856_
*903 _0857_
*904 _0858_
*905 _0859_
*906 _0860_
*907 _0861_
*908 _0862_
*909 _0863_
*910 _0864_
*911 _0865_
*912 _0866_
*913 _0867_
*914 _0868_
*915 _0869_
*916 _0870_
*917 _0871_
*918 _0872_
*919 _0873_
*920 _0874_
*921 _0875_
*922 _0876_
*923 _0877_
*924 _0878_
*925 _0879_
*926 _0880_
*927 _0881_
*928 _0882_
*929 _0883_
*930 _0884_
*931 _0885_
*932 _0886_
*933 _0887_
*934 _0888_
*935 _0889_
*936 _0890_
*937 _0891_
*938 _0892_
*939 _0893_
*940 _0894_
*941 _0895_
*942 _0896_
*943 _0897_
*944 _0898_
*945 _0899_
*946 _0900_
*947 _0901_
*948 _0902_
*949 _0903_
*950 _0904_
*951 _0905_
*952 _0906_
*953 _0907_
*954 _0908_
*955 _0909_
*956 _0910_
*957 _0911_
*958 _0912_
*959 _0913_
*960 _0914_
*961 _0915_
*962 _0916_
*963 _0917_
*964 _0918_
*965 _0919_
*966 _0920_
*967 _0921_
*968 _0922_
*969 _0923_
*970 _0924_
*971 _0925_
*972 _0926_
*973 _0927_
*974 _0928_
*975 _0929_
*976 _0930_
*977 _0931_
*978 _0932_
*979 _0933_
*980 _0934_
*981 _0935_
*982 _0936_
*983 _0937_
*984 _0938_
*985 _0939_
*986 _0940_
*987 _0941_
*988 _0942_
*989 _0943_
*990 _0944_
*991 _0945_
*992 _0946_
*993 _0947_
*994 _0948_
*995 _0949_
*996 _0950_
*997 _0951_
*998 _0952_
*999 _0953_
*1000 _0954_
*1001 _0955_
*1002 _0956_
*1003 _0957_
*1004 _0958_
*1005 _0959_
*1006 _0960_
*1007 _0961_
*1008 _0962_
*1009 _0963_
*1010 _0964_
*1011 _0965_
*1012 _0966_
*1013 _0967_
*1014 _0968_
*1015 _0969_
*1016 _0970_
*1017 _0971_
*1018 _0972_
*1019 _0973_
*1020 _0974_
*1021 _0975_
*1022 _0976_
*1023 _0977_
*1024 _0978_
*1025 _0979_
*1026 _0980_
*1027 _0981_
*1028 _0982_
*1029 _0983_
*1030 _0984_
*1031 _0985_
*1032 _0986_
*1033 _0987_
*1034 _0988_
*1035 _0989_
*1036 _0990_
*1037 _0991_
*1038 _0992_
*1039 _0993_
*1040 _0994_
*1041 _0995_
*1042 _0996_
*1043 _0997_
*1044 _0998_
*1045 _0999_
*1046 _1000_
*1047 _1001_
*1048 _1002_
*1049 _1003_
*1050 _1004_
*1051 _1005_
*1052 _1006_
*1053 _1007_
*1054 _1008_
*1055 _1009_
*1056 _1010_
*1057 _1011_
*1058 _1012_
*1059 _1013_
*1060 _1014_
*1061 _1015_
*1062 _1016_
*1063 _1017_
*1064 _1018_
*1065 _1019_
*1066 _1020_
*1067 _1021_
*1068 _1022_
*1069 _1023_
*1070 _1024_
*1071 _1025_
*1072 _1026_
*1073 _1027_
*1074 _1028_
*1075 _1029_
*1076 _1030_
*1077 _1031_
*1078 _1032_
*1079 _1033_
*1080 _1034_
*1081 _1035_
*1082 _1036_
*1083 _1037_
*1084 _1038_
*1085 _1039_
*1086 _1040_
*1087 _1041_
*1088 _1042_
*1089 _1043_
*1090 _1044_
*1091 _1045_
*1092 _1046_
*1093 _1047_
*1094 _1048_
*1095 _1049_
*1096 _1050_
*1097 _1051_
*1098 _1052_
*1099 _1053_
*1100 _1054_
*1101 _1055_
*1102 _1056_
*1103 _1057_
*1104 _1058_
*1105 _1059_
*1106 _1060_
*1107 _1061_
*1108 _1062_
*1109 _1063_
*1110 _1064_
*1111 _1065_
*1112 _1066_
*1113 _1067_
*1114 _1068_
*1115 _1069_
*1116 _1070_
*1117 _1071_
*1118 _1072_
*1119 _1073_
*1120 _1074_
*1121 _1075_
*1122 _1076_
*1123 _1077_
*1124 _1078_
*1125 _1079_
*1126 _1080_
*1127 _1081_
*1128 _1082_
*1129 _1083_
*1130 _1084_
*1131 _1085_
*1132 _1086_
*1133 _1087_
*1134 _1088_
*1135 _1089_
*1136 _1090_
*1137 _1091_
*1138 _1092_
*1139 _1093_
*1140 _1094_
*1141 _1095_
*1142 _1096_
*1143 _1097_
*1144 _1098_
*1145 _1099_
*1146 _1100_
*1147 _1101_
*1148 _1102_
*1149 _1103_
*1150 _1104_
*1151 _1105_
*1152 _1106_
*1153 _1107_
*1154 _1108_
*1155 _1109_
*1156 _1110_
*1157 _1111_
*1158 _1112_
*1159 _1113_
*1160 _1114_
*1161 _1115_
*1162 _1116_
*1163 _1117_
*1164 _1118_
*1165 _1119_
*1166 _1120_
*1167 _1121_
*1168 _1122_
*1169 _1123_
*1170 _1124_
*1171 _1125_
*1172 _1126_
*1173 _1127_
*1174 _1128_
*1175 _1129_
*1176 _1130_
*1177 _1131_
*1178 _1132_
*1179 _1133_
*1180 _1134_
*1181 _1135_
*1182 _1136_
*1183 _1137_
*1184 _1138_
*1185 _1139_
*1186 _1140_
*1187 _1141_
*1188 _1142_
*1189 _1143_
*1190 _1144_
*1191 _1145_
*1192 _1146_
*1193 _1147_
*1194 _1148_
*1195 _1149_
*1196 _1150_
*1197 _1151_
*1198 _1152_
*1199 _1153_
*1200 _1154_
*1201 _1155_
*1202 _1156_
*1203 _1157_
*1204 _1158_
*1205 _1159_
*1206 _1160_
*1207 _1161_
*1208 _1162_
*1209 _1163_
*1210 _1164_
*1211 _1165_
*1212 _1166_
*1213 _1167_
*1214 _1168_
*1215 _1169_
*1216 _1170_
*1217 _1171_
*1218 _1172_
*1219 _1173_
*1220 _1174_
*1221 _1175_
*1222 _1176_
*1223 _1177_
*1224 _1178_
*1225 _1179_
*1226 _1180_
*1227 _1181_
*1228 _1182_
*1229 _1183_
*1230 _1184_
*1231 _1185_
*1232 _1186_
*1233 _1187_
*1234 _1188_
*1235 _1189_
*1236 _1190_
*1237 _1191_
*1238 _1192_
*1239 _1193_
*1240 _1194_
*1241 _1195_
*1242 _1196_
*1243 _1197_
*1244 _1198_
*1245 _1199_
*1246 _1200_
*1247 _1201_
*1248 _1202_
*1249 _1203_
*1250 _1204_
*1251 _1205_
*1252 _1206_
*1253 _1207_
*1254 _1208_
*1255 _1209_
*1256 _1210_
*1257 _1211_
*1258 _1212_
*1259 _1213_
*1260 _1214_
*1261 _1215_
*1262 _1216_
*1263 _1217_
*1264 _1218_
*1265 _1219_
*1266 _1220_
*1267 _1221_
*1268 _1222_
*1269 _1223_
*1270 _1224_
*1271 _1225_
*1272 _1226_
*1273 _1227_
*1274 _1228_
*1275 _1229_
*1276 _1230_
*1277 _1231_
*1278 _1232_
*1279 _1233_
*1280 _1234_
*1281 _1235_
*1282 _1236_
*1283 _1237_
*1284 _1238_
*1285 _1239_
*1286 _1240_
*1287 _1241_
*1288 _1242_
*1289 _1243_
*1290 _1244_
*1291 _1245_
*1292 _1246_
*1293 _1247_
*1294 _1248_
*1295 _1249_
*1296 _1250_
*1297 _1251_
*1298 _1252_
*1299 _1253_
*1300 _1254_
*1301 _1255_
*1302 _1256_
*1303 _1257_
*1304 _1258_
*1305 _1259_
*1306 _1260_
*1307 _1261_
*1308 _1262_
*1309 _1263_
*1310 _1264_
*1311 _1265_
*1312 _1266_
*1313 _1267_
*1314 _1268_
*1315 _1269_
*1316 _1270_
*1317 _1271_
*1318 _1272_
*1319 _1273_
*1320 _1274_
*1321 _1275_
*1322 _1276_
*1323 _1277_
*1324 _1278_
*1325 _1279_
*1326 _1280_
*1327 _1281_
*1328 _1282_
*1329 _1283_
*1330 _1284_
*1331 _1285_
*1332 _1286_
*1333 _1287_
*1334 _1288_
*1335 _1289_
*1336 _1290_
*1337 _1291_
*1338 _1292_
*1339 _1293_
*1340 _1294_
*1341 _1295_
*1342 _1296_
*1343 _1297_
*1344 _1298_
*1345 _1299_
*1346 _1300_
*1347 _1301_
*1348 _1302_
*1349 _1303_
*1350 _1304_
*1351 _1305_
*1352 _1306_
*1353 _1307_
*1354 _1308_
*1355 _1309_
*1356 _1310_
*1357 _1311_
*1358 _1312_
*1359 _1313_
*1360 _1314_
*1361 _1315_
*1362 _1316_
*1363 _1317_
*1364 _1318_
*1365 _1319_
*1366 _1320_
*1367 _1321_
*1368 _1322_
*1369 _1323_
*1370 _1324_
*1371 _1325_
*1372 _1326_
*1373 _1327_
*1374 _1328_
*1375 _1329_
*1376 _1330_
*1377 _1331_
*1378 _1332_
*1379 _1333_
*1380 _1334_
*1381 _1335_
*1382 _1336_
*1383 _1337_
*1384 _1338_
*1385 _1339_
*1386 _1340_
*1387 _1341_
*1388 _1342_
*1389 _1343_
*1390 _1344_
*1391 _1345_
*1392 _1346_
*1393 _1347_
*1394 _1348_
*1395 _1349_
*1396 _1350_
*1397 _1351_
*1398 _1352_
*1399 _1353_
*1400 _1354_
*1401 _1355_
*1402 _1356_
*1403 _1357_
*1404 _1358_
*1405 _1359_
*1406 _1360_
*1407 _1361_
*1408 _1362_
*1409 _1363_
*1410 _1364_
*1411 _1365_
*1412 _1366_
*1413 _1367_
*1414 _1368_
*1415 _1369_
*1416 _1370_
*1417 _1371_
*1418 _1372_
*1419 _1373_
*1420 _1374_
*1421 _1375_
*1422 _1376_
*1423 _1377_
*1424 _1378_
*1425 _1379_
*1426 _1380_
*1427 _1381_
*1428 _1382_
*1429 _1383_
*1430 _1384_
*1431 _1385_
*1432 _1386_
*1433 clknet_0_clk
*1434 clknet_1_0__leaf_clk
*1435 clknet_1_1__leaf_clk
*1436 clknet_leaf_0_clk
*1437 clknet_leaf_10_clk
*1438 clknet_leaf_11_clk
*1439 clknet_leaf_12_clk
*1440 clknet_leaf_13_clk
*1441 clknet_leaf_14_clk
*1442 clknet_leaf_15_clk
*1443 clknet_leaf_16_clk
*1444 clknet_leaf_17_clk
*1445 clknet_leaf_18_clk
*1446 clknet_leaf_19_clk
*1447 clknet_leaf_1_clk
*1448 clknet_leaf_20_clk
*1449 clknet_leaf_21_clk
*1450 clknet_leaf_2_clk
*1451 clknet_leaf_3_clk
*1452 clknet_leaf_4_clk
*1453 clknet_leaf_5_clk
*1454 clknet_leaf_6_clk
*1455 clknet_leaf_7_clk
*1456 clknet_leaf_8_clk
*1457 clknet_leaf_9_clk
*1458 cnt\[0\]
*1459 cnt\[1\]
*1460 cnt\[2\]
*1461 fpu_inst\.aa\[0\]
*1462 fpu_inst\.aa\[1\]
*1463 fpu_inst\.aa\[2\]
*1464 fpu_inst\.aa\[3\]
*1465 fpu_inst\.aa\[4\]
*1466 fpu_inst\.aa\[5\]
*1467 fpu_inst\.aa\[6\]
*1468 fpu_inst\.ab\[0\]
*1469 fpu_inst\.ab\[1\]
*1470 fpu_inst\.ab\[2\]
*1471 fpu_inst\.ab\[3\]
*1472 fpu_inst\.ab\[4\]
*1473 fpu_inst\.ab\[5\]
*1474 fpu_inst\.ab\[6\]
*1475 fpu_inst\.add
*1476 fpu_inst\.alu\.a\[0\]
*1477 fpu_inst\.alu\.a\[10\]
*1478 fpu_inst\.alu\.a\[11\]
*1479 fpu_inst\.alu\.a\[12\]
*1480 fpu_inst\.alu\.a\[13\]
*1481 fpu_inst\.alu\.a\[14\]
*1482 fpu_inst\.alu\.a\[15\]
*1483 fpu_inst\.alu\.a\[1\]
*1484 fpu_inst\.alu\.a\[2\]
*1485 fpu_inst\.alu\.a\[3\]
*1486 fpu_inst\.alu\.a\[4\]
*1487 fpu_inst\.alu\.a\[5\]
*1488 fpu_inst\.alu\.a\[6\]
*1489 fpu_inst\.alu\.a\[7\]
*1490 fpu_inst\.alu\.a\[8\]
*1491 fpu_inst\.alu\.a\[9\]
*1492 fpu_inst\.alu\.b\[0\]
*1493 fpu_inst\.alu\.b\[10\]
*1494 fpu_inst\.alu\.b\[11\]
*1495 fpu_inst\.alu\.b\[12\]
*1496 fpu_inst\.alu\.b\[13\]
*1497 fpu_inst\.alu\.b\[14\]
*1498 fpu_inst\.alu\.b\[15\]
*1499 fpu_inst\.alu\.b\[16\]
*1500 fpu_inst\.alu\.b\[1\]
*1501 fpu_inst\.alu\.b\[2\]
*1502 fpu_inst\.alu\.b\[3\]
*1503 fpu_inst\.alu\.b\[4\]
*1504 fpu_inst\.alu\.b\[5\]
*1505 fpu_inst\.alu\.b\[6\]
*1506 fpu_inst\.alu\.b\[7\]
*1507 fpu_inst\.alu\.b\[8\]
*1508 fpu_inst\.alu\.b\[9\]
*1509 fpu_inst\.alu\.c_in
*1510 fpu_inst\.alu8\.a\[0\]
*1511 fpu_inst\.alu8\.a\[1\]
*1512 fpu_inst\.alu8\.a\[2\]
*1513 fpu_inst\.alu8\.a\[3\]
*1514 fpu_inst\.alu8\.a\[4\]
*1515 fpu_inst\.alu8\.a\[5\]
*1516 fpu_inst\.alu8\.a\[6\]
*1517 fpu_inst\.alu8\.a\[7\]
*1518 fpu_inst\.alu8\.b\[0\]
*1519 fpu_inst\.alu8\.b\[1\]
*1520 fpu_inst\.alu8\.b\[2\]
*1521 fpu_inst\.alu8\.b\[3\]
*1522 fpu_inst\.alu8\.b\[4\]
*1523 fpu_inst\.alu8\.b\[5\]
*1524 fpu_inst\.alu8\.b\[6\]
*1525 fpu_inst\.alu8\.c_in
*1526 fpu_inst\.ba\[0\]
*1527 fpu_inst\.ba\[10\]
*1528 fpu_inst\.ba\[11\]
*1529 fpu_inst\.ba\[12\]
*1530 fpu_inst\.ba\[13\]
*1531 fpu_inst\.ba\[14\]
*1532 fpu_inst\.ba\[1\]
*1533 fpu_inst\.ba\[2\]
*1534 fpu_inst\.ba\[3\]
*1535 fpu_inst\.ba\[4\]
*1536 fpu_inst\.ba\[5\]
*1537 fpu_inst\.ba\[6\]
*1538 fpu_inst\.ba\[7\]
*1539 fpu_inst\.ba\[8\]
*1540 fpu_inst\.ba\[9\]
*1541 fpu_inst\.bs
*1542 fpu_inst\.idle
*1543 fpu_inst\.operation
*1544 fpu_inst\.reg1_e\[0\]
*1545 fpu_inst\.reg1_e\[1\]
*1546 fpu_inst\.reg1_e\[2\]
*1547 fpu_inst\.reg1_e\[3\]
*1548 fpu_inst\.reg1_e\[4\]
*1549 fpu_inst\.reg1_e\[5\]
*1550 fpu_inst\.reg1_e\[6\]
*1551 fpu_inst\.reg1_m\[0\]
*1552 fpu_inst\.reg1_m\[10\]
*1553 fpu_inst\.reg1_m\[11\]
*1554 fpu_inst\.reg1_m\[12\]
*1555 fpu_inst\.reg1_m\[13\]
*1556 fpu_inst\.reg1_m\[14\]
*1557 fpu_inst\.reg1_m\[1\]
*1558 fpu_inst\.reg1_m\[2\]
*1559 fpu_inst\.reg1_m\[3\]
*1560 fpu_inst\.reg1_m\[4\]
*1561 fpu_inst\.reg1_m\[5\]
*1562 fpu_inst\.reg1_m\[6\]
*1563 fpu_inst\.reg1_m\[7\]
*1564 fpu_inst\.reg1_m\[8\]
*1565 fpu_inst\.reg1_m\[9\]
*1566 fpu_inst\.reg1_s
*1567 fpu_inst\.reg2_e\[0\]
*1568 fpu_inst\.reg2_e\[1\]
*1569 fpu_inst\.reg2_e\[2\]
*1570 fpu_inst\.reg2_e\[3\]
*1571 fpu_inst\.reg2_e\[4\]
*1572 fpu_inst\.reg2_e\[5\]
*1573 fpu_inst\.reg2_e\[6\]
*1574 fpu_inst\.reg2_m\[0\]
*1575 fpu_inst\.reg2_m\[10\]
*1576 fpu_inst\.reg2_m\[11\]
*1577 fpu_inst\.reg2_m\[12\]
*1578 fpu_inst\.reg2_m\[13\]
*1579 fpu_inst\.reg2_m\[14\]
*1580 fpu_inst\.reg2_m\[1\]
*1581 fpu_inst\.reg2_m\[2\]
*1582 fpu_inst\.reg2_m\[3\]
*1583 fpu_inst\.reg2_m\[4\]
*1584 fpu_inst\.reg2_m\[5\]
*1585 fpu_inst\.reg2_m\[6\]
*1586 fpu_inst\.reg2_m\[7\]
*1587 fpu_inst\.reg2_m\[8\]
*1588 fpu_inst\.reg2_m\[9\]
*1589 fpu_inst\.reg2_s
*1590 fpu_inst\.res_e\[0\]
*1591 fpu_inst\.res_e\[1\]
*1592 fpu_inst\.res_e\[2\]
*1593 fpu_inst\.res_e\[3\]
*1594 fpu_inst\.res_e\[4\]
*1595 fpu_inst\.res_e\[5\]
*1596 fpu_inst\.res_e\[6\]
*1597 fpu_inst\.res_m\[0\]
*1598 fpu_inst\.res_m\[10\]
*1599 fpu_inst\.res_m\[11\]
*1600 fpu_inst\.res_m\[12\]
*1601 fpu_inst\.res_m\[13\]
*1602 fpu_inst\.res_m\[14\]
*1603 fpu_inst\.res_m\[1\]
*1604 fpu_inst\.res_m\[2\]
*1605 fpu_inst\.res_m\[3\]
*1606 fpu_inst\.res_m\[4\]
*1607 fpu_inst\.res_m\[5\]
*1608 fpu_inst\.res_m\[6\]
*1609 fpu_inst\.res_m\[7\]
*1610 fpu_inst\.res_m\[8\]
*1611 fpu_inst\.res_m\[9\]
*1612 fpu_inst\.res_s
*1613 fpu_inst\.shifter\.amount\[0\]
*1614 fpu_inst\.shifter\.amount\[1\]
*1615 fpu_inst\.shifter\.amount\[2\]
*1616 fpu_inst\.shifter\.amount\[3\]
*1617 fpu_inst\.shifter\.amount\[4\]
*1618 fpu_inst\.shifter\.amount\[5\]
*1619 fpu_inst\.shifter\.amount\[6\]
*1620 fpu_inst\.shifter\.amount\[7\]
*1621 fpu_inst\.shifter\.in\[0\]
*1622 fpu_inst\.shifter\.in\[10\]
*1623 fpu_inst\.shifter\.in\[11\]
*1624 fpu_inst\.shifter\.in\[12\]
*1625 fpu_inst\.shifter\.in\[13\]
*1626 fpu_inst\.shifter\.in\[14\]
*1627 fpu_inst\.shifter\.in\[15\]
*1628 fpu_inst\.shifter\.in\[16\]
*1629 fpu_inst\.shifter\.in\[1\]
*1630 fpu_inst\.shifter\.in\[2\]
*1631 fpu_inst\.shifter\.in\[3\]
*1632 fpu_inst\.shifter\.in\[4\]
*1633 fpu_inst\.shifter\.in\[5\]
*1634 fpu_inst\.shifter\.in\[6\]
*1635 fpu_inst\.shifter\.in\[7\]
*1636 fpu_inst\.shifter\.in\[8\]
*1637 fpu_inst\.shifter\.in\[9\]
*1638 fpu_inst\.shifter\.left
*1639 fpu_inst\.state\[0\]
*1640 fpu_inst\.state\[10\]
*1641 fpu_inst\.state\[1\]
*1642 fpu_inst\.state\[2\]
*1643 fpu_inst\.state\[3\]
*1644 fpu_inst\.state\[4\]
*1645 fpu_inst\.state\[5\]
*1646 fpu_inst\.state\[6\]
*1647 fpu_inst\.state\[7\]
*1648 fpu_inst\.state\[8\]
*1649 fpu_inst\.state\[9\]
*1650 fpu_inst\.sub
*1651 i_uart_rx\.bit_counter\[0\]
*1652 i_uart_rx\.bit_counter\[1\]
*1653 i_uart_rx\.bit_counter\[2\]
*1654 i_uart_rx\.bit_counter\[3\]
*1655 i_uart_rx\.bit_sample
*1656 i_uart_rx\.cycle_counter\[0\]
*1657 i_uart_rx\.cycle_counter\[10\]
*1658 i_uart_rx\.cycle_counter\[11\]
*1659 i_uart_rx\.cycle_counter\[1\]
*1660 i_uart_rx\.cycle_counter\[2\]
*1661 i_uart_rx\.cycle_counter\[3\]
*1662 i_uart_rx\.cycle_counter\[4\]
*1663 i_uart_rx\.cycle_counter\[5\]
*1664 i_uart_rx\.cycle_counter\[6\]
*1665 i_uart_rx\.cycle_counter\[7\]
*1666 i_uart_rx\.cycle_counter\[8\]
*1667 i_uart_rx\.cycle_counter\[9\]
*1668 i_uart_rx\.fsm_state\[0\]
*1669 i_uart_rx\.fsm_state\[1\]
*1670 i_uart_rx\.fsm_state\[2\]
*1671 i_uart_rx\.fsm_state\[3\]
*1672 i_uart_rx\.recieved_data\[0\]
*1673 i_uart_rx\.recieved_data\[1\]
*1674 i_uart_rx\.recieved_data\[2\]
*1675 i_uart_rx\.recieved_data\[3\]
*1676 i_uart_rx\.recieved_data\[4\]
*1677 i_uart_rx\.recieved_data\[5\]
*1678 i_uart_rx\.recieved_data\[6\]
*1679 i_uart_rx\.recieved_data\[7\]
*1680 i_uart_rx\.rxd_reg
*1681 i_uart_rx\.rxd_reg_0
*1682 i_uart_rx\.uart_rx_data\[0\]
*1683 i_uart_rx\.uart_rx_data\[1\]
*1684 i_uart_rx\.uart_rx_data\[2\]
*1685 i_uart_rx\.uart_rx_data\[3\]
*1686 i_uart_rx\.uart_rx_data\[4\]
*1687 i_uart_rx\.uart_rx_data\[5\]
*1688 i_uart_rx\.uart_rx_data\[6\]
*1689 i_uart_rx\.uart_rx_data\[7\]
*1690 i_uart_tx\.bit_counter\[0\]
*1691 i_uart_tx\.bit_counter\[1\]
*1692 i_uart_tx\.bit_counter\[2\]
*1693 i_uart_tx\.bit_counter\[3\]
*1694 i_uart_tx\.cycle_counter\[0\]
*1695 i_uart_tx\.cycle_counter\[10\]
*1696 i_uart_tx\.cycle_counter\[11\]
*1697 i_uart_tx\.cycle_counter\[1\]
*1698 i_uart_tx\.cycle_counter\[2\]
*1699 i_uart_tx\.cycle_counter\[3\]
*1700 i_uart_tx\.cycle_counter\[4\]
*1701 i_uart_tx\.cycle_counter\[5\]
*1702 i_uart_tx\.cycle_counter\[6\]
*1703 i_uart_tx\.cycle_counter\[7\]
*1704 i_uart_tx\.cycle_counter\[8\]
*1705 i_uart_tx\.cycle_counter\[9\]
*1706 i_uart_tx\.data_to_send\[0\]
*1707 i_uart_tx\.data_to_send\[1\]
*1708 i_uart_tx\.data_to_send\[2\]
*1709 i_uart_tx\.data_to_send\[3\]
*1710 i_uart_tx\.data_to_send\[4\]
*1711 i_uart_tx\.data_to_send\[5\]
*1712 i_uart_tx\.data_to_send\[6\]
*1713 i_uart_tx\.data_to_send\[7\]
*1714 i_uart_tx\.fsm_state\[0\]
*1715 i_uart_tx\.fsm_state\[1\]
*1716 i_uart_tx\.txd_reg
*1717 i_uart_tx\.uart_tx_data\[0\]
*1718 i_uart_tx\.uart_tx_data\[1\]
*1719 i_uart_tx\.uart_tx_data\[2\]
*1720 i_uart_tx\.uart_tx_data\[3\]
*1721 i_uart_tx\.uart_tx_data\[4\]
*1722 i_uart_tx\.uart_tx_data\[5\]
*1723 i_uart_tx\.uart_tx_data\[6\]
*1724 i_uart_tx\.uart_tx_data\[7\]
*1725 i_uart_tx\.uart_tx_en
*1726 net1
*1727 net100
*1728 net101
*1729 net102
*1730 net103
*1731 net104
*1732 net105
*1733 net106
*1734 net107
*1735 net108
*1736 net109
*1737 net110
*1738 net111
*1739 net112
*1740 net113
*1741 net114
*1742 net115
*1743 net116
*1744 net117
*1745 net118
*1746 net119
*1747 net120
*1748 net121
*1749 net122
*1750 net123
*1751 net124
*1752 net125
*1753 net126
*1754 net127
*1755 net128
*1756 net129
*1757 net130
*1758 net131
*1759 net132
*1760 net133
*1761 net134
*1762 net135
*1763 net136
*1764 net137
*1765 net138
*1766 net139
*1767 net140
*1768 net141
*1769 net142
*1770 net143
*1771 net144
*1772 net145
*1773 net146
*1774 net147
*1775 net148
*1776 net149
*1777 net150
*1778 net151
*1779 net152
*1780 net153
*1781 net154
*1782 net155
*1783 net156
*1784 net157
*1785 net158
*1786 net159
*1787 net160
*1788 net161
*1789 net162
*1790 net163
*1791 net164
*1792 net165
*1793 net166
*1794 net167
*1795 net168
*1796 net169
*1797 net170
*1798 net171
*1799 net172
*1800 net173
*1801 net174
*1802 net175
*1803 net176
*1804 net177
*1805 net178
*1806 net179
*1807 net180
*1808 net181
*1809 net182
*1810 net183
*1811 net184
*1812 net185
*1813 net186
*1814 net187
*1815 net188
*1816 net189
*1817 net190
*1818 net191
*1819 net192
*1820 net193
*1821 net194
*1822 net195
*1823 net196
*1824 net197
*1825 net198
*1826 net199
*1827 net2
*1828 net200
*1829 net201
*1830 net202
*1831 net203
*1832 net204
*1833 net205
*1834 net206
*1835 net207
*1836 net208
*1837 net209
*1838 net210
*1839 net211
*1840 net212
*1841 net213
*1842 net214
*1843 net215
*1844 net216
*1845 net217
*1846 net218
*1847 net219
*1848 net220
*1849 net221
*1850 net222
*1851 net223
*1852 net224
*1853 net225
*1854 net226
*1855 net227
*1856 net228
*1857 net229
*1858 net230
*1859 net231
*1860 net232
*1861 net233
*1862 net234
*1863 net235
*1864 net236
*1865 net237
*1866 net238
*1867 net239
*1868 net240
*1869 net241
*1870 net242
*1871 net243
*1872 net244
*1873 net245
*1874 net246
*1875 net247
*1876 net248
*1877 net249
*1878 net250
*1879 net251
*1880 net252
*1881 net253
*1882 net28
*1883 net29
*1884 net3
*1885 net30
*1886 net31
*1887 net32
*1888 net33
*1889 net34
*1890 net35
*1891 net36
*1892 net37
*1893 net38
*1894 net39
*1895 net4
*1896 net40
*1897 net41
*1898 net42
*1899 net43
*1900 net44
*1901 net45
*1902 net46
*1903 net47
*1904 net48
*1905 net49
*1906 net50
*1907 net51
*1908 net52
*1909 net53
*1910 net54
*1911 net55
*1912 net56
*1913 net57
*1914 net58
*1915 net59
*1916 net60
*1917 net61
*1918 net62
*1919 net63
*1920 net64
*1921 net65
*1922 net66
*1923 net67
*1924 net68
*1925 net69
*1926 net70
*1927 net71
*1928 net72
*1929 net73
*1930 net74
*1931 net75
*1932 net76
*1933 net77
*1934 net78
*1935 net79
*1936 net80
*1937 net81
*1938 net82
*1939 net83
*1940 net84
*1941 net85
*1942 net86
*1943 net87
*1944 net88
*1945 net89
*1946 net90
*1947 net91
*1948 net92
*1949 net93
*1950 net94
*1951 net95
*1952 net96
*1953 net97
*1954 net98
*1955 net99
*1956 state\[0\]
*1957 state\[1\]
*1958 state\[2\]
*1959 state\[3\]
*1960 state\[4\]
*1961 state\[5\]
*1962 state\[6\]
*1963 state\[7\]
*1964 state\[8\]
*1965 ANTENNA_1
*1966 ANTENNA_2
*1967 ANTENNA_3
*1968 ANTENNA_4
*1969 ANTENNA_5
*1970 FILLER_0_0_109
*1971 FILLER_0_0_113
*1972 FILLER_0_0_125
*1973 FILLER_0_0_137
*1974 FILLER_0_0_141
*1975 FILLER_0_0_15
*1976 FILLER_0_0_152
*1977 FILLER_0_0_164
*1978 FILLER_0_0_169
*1979 FILLER_0_0_181
*1980 FILLER_0_0_193
*1981 FILLER_0_0_197
*1982 FILLER_0_0_209
*1983 FILLER_0_0_221
*1984 FILLER_0_0_225
*1985 FILLER_0_0_237
*1986 FILLER_0_0_249
*1987 FILLER_0_0_253
*1988 FILLER_0_0_265
*1989 FILLER_0_0_27