*SPEF "ieee 1481-1999"
*DESIGN "tt_um_MATTHIAS_M_PAL_TOP_WRAPPER"
*DATE "20:10:46 Thursday April 11, 2024"
*VENDOR "The OpenROAD Project"
*PROGRAM "OpenROAD"
*VERSION "0889970d1790a2617e69f253221b8bd7626e51dc"
*DESIGN_FLOW "NAME_SCOPE LOCAL" "PIN_CAP NONE"
*DIVIDER /
*DELIMITER :
*BUS_DELIMITER []
*T_UNIT 1 NS
*C_UNIT 1 PF
*R_UNIT 1 OHM
*L_UNIT 1 HENRY

*NAME_MAP
*3 clk
*4 ena
*5 rst_n
*6 ui_in[0]
*7 ui_in[1]
*8 ui_in[2]
*9 ui_in[3]
*10 ui_in[4]
*11 ui_in[5]
*12 ui_in[6]
*13 ui_in[7]
*14 uio_in[0]
*15 uio_in[1]
*16 uio_in[2]
*17 uio_in[3]
*18 uio_in[4]
*19 uio_in[5]
*20 uio_in[6]
*21 uio_in[7]
*22 net45
*23 net46
*24 net47
*25 net48
*26 net49
*27 net50
*28 net51
*29 net52
*30 net53
*31 net54
*32 net55
*33 net56
*34 net57
*35 net58
*36 net59
*37 net60
*38 uo_out[0]
*39 uo_out[1]
*40 uo_out[2]
*41 uo_out[3]
*42 uo_out[4]
*43 net61
*44 net62
*45 net63
*46 _0000_
*47 _0001_
*48 _0002_
*49 _0003_
*50 _0004_
*51 _0005_
*52 _0006_
*53 _0007_
*54 _0008_
*55 _0009_
*56 _0010_
*57 _0011_
*58 _0012_
*59 _0013_
*60 _0014_
*61 _0015_
*62 _0016_
*63 _0017_
*64 _0018_
*65 _0019_
*66 _0020_
*67 _0021_
*68 _0022_
*69 _0023_
*70 _0024_
*71 _0025_
*72 _0026_
*73 _0027_
*74 _0028_
*75 _0029_
*76 _0030_
*77 _0031_
*78 _0032_
*79 _0033_
*80 _0034_
*81 _0035_
*82 _0036_
*83 _0037_
*84 _0038_
*85 _0039_
*86 _0040_
*87 _0041_
*88 _0042_
*89 _0043_
*90 _0044_
*91 _0045_
*92 _0046_
*93 _0047_
*94 _0048_
*95 _0049_
*96 _0050_
*97 _0051_
*98 _0052_
*99 _0053_
*100 _0054_
*101 _0055_
*102 _0056_
*103 _0057_
*104 _0058_
*105 _0059_
*106 _0060_
*107 _0061_
*108 _0062_
*109 _0063_
*110 _0064_
*111 _0065_
*112 _0066_
*113 _0067_
*114 _0068_
*115 _0069_
*116 _0070_
*117 _0071_
*118 _0072_
*119 _0073_
*120 _0074_
*121 _0075_
*122 _0076_
*123 _0077_
*124 _0078_
*125 _0079_
*126 _0080_
*127 _0081_
*128 _0082_
*129 _0083_
*130 _0084_
*131 _0085_
*132 _0086_
*133 _0087_
*134 _0088_
*135 _0089_
*136 _0090_
*137 _0091_
*138 _0092_
*139 _0093_
*140 _0094_
*141 _0095_
*142 _0096_
*143 _0097_
*144 _0098_
*145 _0099_
*146 _0100_
*147 _0101_
*148 _0102_
*149 _0103_
*150 _0104_
*151 _0105_
*152 _0106_
*153 _0107_
*154 _0108_
*155 _0109_
*156 _0110_
*157 _0111_
*158 _0112_
*159 _0113_
*160 _0114_
*161 _0115_
*162 _0116_
*163 _0117_
*164 _0118_
*165 _0119_
*166 _0120_
*167 _0121_
*168 _0122_
*169 _0123_
*170 _0124_
*171 _0125_
*172 _0126_
*173 _0127_
*174 _0128_
*175 _0129_
*176 _0130_
*177 _0131_
*178 _0132_
*179 _0133_
*180 _0134_
*181 _0135_
*182 _0136_
*183 _0137_
*184 _0138_
*185 _0139_
*186 _0140_
*187 _0141_
*188 _0142_
*189 _0143_
*190 _0144_
*191 _0145_
*192 _0146_
*193 _0147_
*194 _0148_
*195 _0149_
*196 _0150_
*197 _0151_
*198 _0152_
*199 _0153_
*200 _0154_
*201 _0155_
*202 _0156_
*203 _0157_
*204 _0158_
*205 _0159_
*206 _0160_
*207 _0161_
*208 _0162_
*209 _0163_
*210 _0164_
*211 _0165_
*212 _0166_
*213 _0167_
*214 _0168_
*215 _0169_
*216 _0170_
*217 _0171_
*218 _0172_
*219 _0173_
*220 _0174_
*221 _0175_
*222 _0176_
*223 _0177_
*224 _0178_
*225 _0179_
*226 _0180_
*227 _0181_
*228 _0182_
*229 _0183_
*230 _0184_
*231 _0185_
*232 _0186_
*233 _0187_
*234 _0188_
*235 _0189_
*236 _0190_
*237 _0191_
*238 _0192_
*239 _0193_
*240 _0194_
*241 _0195_
*242 _0196_
*243 _0197_
*244 _0198_
*245 _0199_
*246 _0200_
*247 _0201_
*248 _0202_
*249 _0203_
*250 _0204_
*251 _0205_
*252 _0206_
*253 _0207_
*254 _0208_
*255 _0209_
*256 _0210_
*257 _0211_
*258 _0212_
*259 _0213_
*260 _0214_
*261 _0215_
*262 _0216_
*263 _0217_
*264 _0218_
*265 _0219_
*266 _0220_
*267 _0221_
*268 _0222_
*269 _0223_
*270 _0224_
*271 _0225_
*272 _0226_
*273 _0227_
*274 _0228_
*275 _0229_
*276 _0230_
*277 _0231_
*278 _0232_
*279 _0233_
*280 _0234_
*281 _0235_
*282 _0236_
*283 _0237_
*284 _0238_
*285 _0239_
*286 _0240_
*287 _0241_
*288 _0242_
*289 _0243_
*290 _0244_
*291 _0245_
*292 _0246_
*293 _0247_
*294 _0248_
*295 _0249_
*296 _0250_
*297 _0251_
*298 _0252_
*299 _0253_
*300 _0254_
*301 _0255_
*302 _0256_
*303 _0257_
*304 _0258_
*305 _0259_
*306 _0260_
*307 _0261_
*308 _0262_
*309 _0263_
*310 _0264_
*311 _0265_
*312 _0266_
*313 _0267_
*314 _0268_
*315 _0269_
*316 _0270_
*317 _0271_
*318 _0272_
*319 _0273_
*320 _0274_
*321 _0275_
*322 _0276_
*323 _0277_
*324 _0278_
*325 _0279_
*326 _0280_
*327 _0281_
*328 _0282_
*329 _0283_
*330 _0284_
*331 _0285_
*332 _0286_
*333 _0287_
*334 _0288_
*335 _0289_
*336 _0290_
*337 _0291_
*338 _0292_
*339 _0293_
*340 _0294_
*341 _0295_
*342 _0296_
*343 _0297_
*344 _0298_
*345 _0299_
*346 _0300_
*347 _0301_
*348 _0302_
*349 _0303_
*350 _0304_
*351 _0305_
*352 _0306_
*353 _0307_
*354 _0308_
*355 _0309_
*356 _0310_
*357 _0311_
*358 _0312_
*359 _0313_
*360 _0314_
*361 _0315_
*362 _0316_
*363 _0317_
*364 _0318_
*365 _0319_
*366 _0320_
*367 _0321_
*368 _0322_
*369 _0323_
*370 _0324_
*371 _0325_
*372 _0326_
*373 _0327_
*374 _0328_
*375 _0329_
*376 _0330_
*377 _0331_
*378 _0332_
*379 _0333_
*380 _0334_
*381 _0335_
*382 _0336_
*383 _0337_
*384 _0338_
*385 _0339_
*386 _0340_
*387 _0341_
*388 _0342_
*389 _0343_
*390 _0344_
*391 _0345_
*392 _0346_
*393 _0347_
*394 _0348_
*395 _0349_
*396 _0350_
*397 _0351_
*398 _0352_
*399 _0353_
*400 _0354_
*401 _0355_
*402 _0356_
*403 _0357_
*404 _0358_
*405 _0359_
*406 _0360_
*407 _0361_
*408 _0363_
*409 _0364_
*410 _0365_
*411 _0366_
*412 _0367_
*413 _0368_
*414 _0369_
*415 _0370_
*416 _0371_
*417 _0372_
*418 _0373_
*419 _0374_
*420 _0375_
*421 _0376_
*422 _0377_
*423 _0378_
*424 _0379_
*425 _0380_
*426 _0381_
*427 _0382_
*428 _0383_
*429 _0384_
*430 _0385_
*431 _0386_
*432 _0387_
*433 _0388_
*434 _0389_
*435 _0390_
*436 _0391_
*437 _0392_
*438 _0393_
*439 _0394_
*440 _0395_
*441 _0396_
*442 _0397_
*443 _0398_
*444 _0399_
*445 _0400_
*446 _0401_
*447 _0402_
*448 _0403_
*449 _0404_
*450 _0405_
*451 _0406_
*452 _0407_
*453 _0408_
*454 _0409_
*455 _0410_
*456 _0411_
*457 _0412_
*458 _0413_
*459 _0414_
*460 _0415_
*461 _0416_
*462 _0417_
*463 _0418_
*464 _0419_
*465 _0420_
*466 _0421_
*467 _0422_
*468 _0423_
*469 _0424_
*470 _0425_
*471 _0426_
*472 _0427_
*473 _0428_
*474 _0429_
*475 _0430_
*476 _0431_
*477 _0432_
*478 _0433_
*479 _0434_
*480 _0435_
*481 _0436_
*482 _0437_
*483 _0438_
*484 _0439_
*485 _0440_
*486 _0441_
*487 _0442_
*488 _0443_
*489 _0444_
*490 _0445_
*491 _0446_
*492 _0447_
*493 _0448_
*494 _0449_
*495 _0450_
*496 _0451_
*497 _0452_
*498 _0453_
*499 _0454_
*500 _0455_
*501 _0456_
*502 _0457_
*503 _0458_
*504 _0459_
*505 _0460_
*506 _0461_
*507 _0462_
*508 _0463_
*509 _0464_
*510 _0465_
*511 _0466_
*512 _0467_
*513 _0468_
*514 _0469_
*515 _0470_
*516 _0471_
*517 _0472_
*518 _0473_
*519 _0474_
*520 _0475_
*521 _0476_
*522 _0477_
*523 _0478_
*524 _0479_
*525 _0480_
*526 _0481_
*527 _0482_
*528 _0483_
*529 _0484_
*530 _0485_
*531 _0486_
*532 _0487_
*533 _0488_
*534 _0489_
*535 _0490_
*536 _0491_
*537 _0492_
*538 _0493_
*539 _0494_
*540 _0495_
*541 _0496_
*542 _0497_
*543 _0498_
*544 _0499_
*545 _0500_
*546 _0501_
*547 _0502_
*548 _0503_
*549 _0504_
*550 _0505_
*551 _0506_
*552 _0507_
*553 _0508_
*554 _0509_
*555 _0510_
*556 _0511_
*557 _0512_
*558 _0513_
*559 _0514_
*560 _0515_
*561 _0516_
*562 _0517_
*563 _0518_
*564 _0519_
*565 _0520_
*566 _0521_
*567 _0522_
*568 _0523_
*569 _0524_
*570 _0525_
*571 _0526_
*572 _0527_
*573 _0528_
*574 _0529_
*575 _0530_
*576 _0531_
*577 _0532_
*578 _0533_
*579 _0534_
*580 _0535_
*581 _0536_
*582 _0537_
*583 _0538_
*584 _0539_
*585 _0540_
*586 _0541_
*587 _0542_
*588 _0543_
*589 _0544_
*590 _0545_
*591 _0546_
*592 _0547_
*593 _0548_
*594 _0549_
*595 _0550_
*596 _0551_
*597 _0552_
*598 _0553_
*599 _0554_
*600 _0555_
*601 _0556_
*602 _0557_
*603 _0558_
*604 _0559_
*605 _0560_
*606 _0561_
*607 _0562_
*608 _0563_
*609 _0564_
*610 _0565_
*611 _0566_
*612 _0567_
*613 _0568_
*614 _0569_
*615 _0570_
*616 _0571_
*617 _0572_
*618 _0573_
*619 _0574_
*620 _0575_
*621 _0576_
*622 _0577_
*623 _0578_
*624 _0579_
*625 _0580_
*626 _0581_
*627 _0582_
*628 _0583_
*629 _0584_
*630 _0585_
*631 _0586_
*632 _0587_
*633 _0588_
*634 _0589_
*635 _0590_
*636 _0591_
*637 _0592_
*638 _0593_
*639 _0594_
*640 _0595_
*641 _0596_
*642 _0597_
*643 _0598_
*644 _0599_
*645 _0600_
*646 _0601_
*647 _0602_
*648 _0603_
*649 _0604_
*650 _0605_
*651 _0606_
*652 _0607_
*653 _0608_
*654 _0609_
*655 _0610_
*656 _0611_
*657 _0612_
*658 _0613_
*659 _0614_
*660 _0615_
*661 _0616_
*662 _0617_
*663 _0618_
*664 _0619_
*665 _0620_
*666 _0621_
*667 _0622_
*668 _0623_
*669 _0624_
*670 _0625_
*671 _0626_
*672 _0627_
*673 _0628_
*674 _0629_
*675 _0630_
*676 _0631_
*677 _0632_
*678 _0633_
*679 _0634_
*680 _0635_
*681 _0636_
*682 _0637_
*683 _0638_
*684 _0639_
*685 _0640_
*686 _0641_
*687 _0642_
*688 _0643_
*689 _0644_
*690 _0645_
*691 _0646_
*692 _0647_
*693 _0648_
*694 _0649_
*695 _0650_
*696 _0651_
*697 _0652_
*698 _0653_
*699 _0654_
*700 _0655_
*701 _0656_
*702 _0657_
*703 _0658_
*704 _0659_
*705 _0660_
*706 clknet_0__0309_
*707 clknet_0__0327_
*708 clknet_0__0334_
*709 clknet_0__0343_
*710 clknet_0__0354_
*711 clknet_0__0359_
*712 clknet_0__0368_
*713 clknet_0__0369_
*714 clknet_0__0382_
*715 clknet_0__0391_
*716 clknet_0__0403_
*717 clknet_0__0415_
*718 clknet_0__0426_
*719 clknet_0__0439_
*720 clknet_0__0440_
*721 clknet_0__0450_
*722 clknet_0__0451_
*723 clknet_0_ui_in[2]
*724 clknet_1_0__leaf__0309_
*725 clknet_1_0__leaf__0327_
*726 clknet_1_0__leaf__0334_
*727 clknet_1_0__leaf__0343_
*728 clknet_1_0__leaf__0354_
*729 clknet_1_0__leaf__0359_
*730 clknet_1_0__leaf__0368_
*731 clknet_1_0__leaf__0369_
*732 clknet_1_0__leaf__0382_
*733 clknet_1_0__leaf__0391_
*734 clknet_1_0__leaf__0403_
*735 clknet_1_0__leaf__0415_
*736 clknet_1_0__leaf__0426_
*737 clknet_1_0__leaf__0439_
*738 clknet_1_0__leaf__0440_
*739 clknet_1_0__leaf__0450_
*740 clknet_1_0__leaf__0451_
*741 clknet_1_0__leaf_ui_in[2]
*742 clknet_1_1__leaf__0309_
*743 clknet_1_1__leaf__0327_
*744 clknet_1_1__leaf__0334_
*745 clknet_1_1__leaf__0343_
*746 clknet_1_1__leaf__0354_
*747 clknet_1_1__leaf__0359_
*748 clknet_1_1__leaf__0368_
*749 clknet_1_1__leaf__0369_
*750 clknet_1_1__leaf__0382_
*751 clknet_1_1__leaf__0391_
*752 clknet_1_1__leaf__0403_
*753 clknet_1_1__leaf__0415_
*754 clknet_1_1__leaf__0426_
*755 clknet_1_1__leaf__0439_
*756 clknet_1_1__leaf__0440_
*757 clknet_1_1__leaf__0450_
*758 clknet_1_1__leaf__0451_
*759 clknet_1_1__leaf_ui_in[2]
*760 net1
*761 net10
*762 net11
*763 net12
*764 net13
*765 net14
*766 net15
*767 net16
*768 net17
*769 net18
*770 net19
*771 net2
*772 net20
*773 net21
*774 net22
*775 net23
*776 net24
*777 net25
*778 net26
*779 net27
*780 net28
*781 net29
*782 net3
*783 net30
*784 net31
*785 net32
*786 net33
*787 net34
*788 net35
*789 net36
*790 net37
*791 net38
*792 net39
*793 net4
*794 net40
*795 net41
*796 net42
*797 net43
*798 net44
*799 net5
*800 net6
*801 net64
*802 net65
*803 net66
*804 net67
*805 net7
*806 net8
*807 net9
*808 pal_I\.OR_GEN_LOOP_OUTER\[0\]\.reduce_or_I\.reduced_out
*809 pal_I\.OR_GEN_LOOP_OUTER\[1\]\.reduce_or_I\.reduced_out
*810 pal_I\.OR_GEN_LOOP_OUTER\[2\]\.reduce_or_I\.reduced_out
*811 pal_I\.OR_GEN_LOOP_OUTER\[3\]\.reduce_or_I\.reduced_out
*812 pal_I\.OR_GEN_LOOP_OUTER\[4\]\.reduce_or_I\.reduced_out
*813 pal_I\.sr\.internal_ff_chain\[0\]
*814 pal_I\.sr\.internal_ff_chain\[100\]
*815 pal_I\.sr\.internal_ff_chain\[101\]
*816 pal_I\.sr\.internal_ff_chain\[102\]
*817 pal_I\.sr\.internal_ff_chain\[103\]
*818 pal_I\.sr\.internal_ff_chain\[104\]
*819 pal_I\.sr\.internal_ff_chain\[105\]
*820 pal_I\.sr\.internal_ff_chain\[106\]
*821 pal_I\.sr\.internal_ff_chain\[107\]
*822 pal_I\.sr\.internal_ff_chain\[108\]
*823 pal_I\.sr\.internal_ff_chain\[109\]
*824 pal_I\.sr\.internal_ff_chain\[10\]
*825 pal_I\.sr\.internal_ff_chain\[110\]
*826 pal_I\.sr\.internal_ff_chain\[111\]
*827 pal_I\.sr\.internal_ff_chain\[112\]
*828 pal_I\.sr\.internal_ff_chain\[113\]
*829 pal_I\.sr\.internal_ff_chain\[114\]
*830 pal_I\.sr\.internal_ff_chain\[115\]
*831 pal_I\.sr\.internal_ff_chain\[116\]
*832 pal_I\.sr\.internal_ff_chain\[117\]
*833 pal_I\.sr\.internal_ff_chain\[118\]
*834 pal_I\.sr\.internal_ff_chain\[119\]
*835 pal_I\.sr\.internal_ff_chain\[11\]
*836 pal_I\.sr\.internal_ff_chain\[120\]
*837 pal_I\.sr\.internal_ff_chain\[121\]
*838 pal_I\.sr\.internal_ff_chain\[122\]
*839 pal_I\.sr\.internal_ff_chain\[123\]
*840 pal_I\.sr\.internal_ff_chain\[124\]
*841 pal_I\.sr\.internal_ff_chain\[125\]
*842 pal_I\.sr\.internal_ff_chain\[126\]
*843 pal_I\.sr\.internal_ff_chain\[127\]
*844 pal_I\.sr\.internal_ff_chain\[128\]
*845 pal_I\.sr\.internal_ff_chain\[129\]
*846 pal_I\.sr\.internal_ff_chain\[12\]
*847 pal_I\.sr\.internal_ff_chain\[130\]
*848 pal_I\.sr\.internal_ff_chain\[131\]
*849 pal_I\.sr\.internal_ff_chain\[132\]
*850 pal_I\.sr\.internal_ff_chain\[133\]
*851 pal_I\.sr\.internal_ff_chain\[134\]
*852 pal_I\.sr\.internal_ff_chain\[135\]
*853 pal_I\.sr\.internal_ff_chain\[136\]
*854 pal_I\.sr\.internal_ff_chain\[137\]
*855 pal_I\.sr\.internal_ff_chain\[138\]
*856 pal_I\.sr\.internal_ff_chain\[139\]
*857 pal_I\.sr\.internal_ff_chain\[13\]
*858 pal_I\.sr\.internal_ff_chain\[140\]
*859 pal_I\.sr\.internal_ff_chain\[141\]
*860 pal_I\.sr\.internal_ff_chain\[142\]
*861 pal_I\.sr\.internal_ff_chain\[143\]
*862 pal_I\.sr\.internal_ff_chain\[144\]
*863 pal_I\.sr\.internal_ff_chain\[145\]
*864 pal_I\.sr\.internal_ff_chain\[146\]
*865 pal_I\.sr\.internal_ff_chain\[147\]
*866 pal_I\.sr\.internal_ff_chain\[148\]
*867 pal_I\.sr\.internal_ff_chain\[149\]
*868 pal_I\.sr\.internal_ff_chain\[14\]
*869 pal_I\.sr\.internal_ff_chain\[150\]
*870 pal_I\.sr\.internal_ff_chain\[151\]
*871 pal_I\.sr\.internal_ff_chain\[152\]
*872 pal_I\.sr\.internal_ff_chain\[153\]
*873 pal_I\.sr\.internal_ff_chain\[154\]
*874 pal_I\.sr\.internal_ff_chain\[155\]
*875 pal_I\.sr\.internal_ff_chain\[156\]
*876 pal_I\.sr\.internal_ff_chain\[157\]
*877 pal_I\.sr\.internal_ff_chain\[158\]
*878 pal_I\.sr\.internal_ff_chain\[159\]
*879 pal_I\.sr\.internal_ff_chain\[15\]
*880 pal_I\.sr\.internal_ff_chain\[160\]
*881 pal_I\.sr\.internal_ff_chain\[161\]
*882 pal_I\.sr\.internal_ff_chain\[162\]
*883 pal_I\.sr\.internal_ff_chain\[163\]
*884 pal_I\.sr\.internal_ff_chain\[164\]
*885 pal_I\.sr\.internal_ff_chain\[165\]
*886 pal_I\.sr\.internal_ff_chain\[166\]
*887 pal_I\.sr\.internal_ff_chain\[167\]
*888 pal_I\.sr\.internal_ff_chain\[168\]
*889 pal_I\.sr\.internal_ff_chain\[169\]
*890 pal_I\.sr\.internal_ff_chain\[16\]
*891 pal_I\.sr\.internal_ff_chain\[170\]
*892 pal_I\.sr\.internal_ff_chain\[171\]
*893 pal_I\.sr\.internal_ff_chain\[172\]
*894 pal_I\.sr\.internal_ff_chain\[173\]
*895 pal_I\.sr\.internal_ff_chain\[174\]
*896 pal_I\.sr\.internal_ff_chain\[175\]
*897 pal_I\.sr\.internal_ff_chain\[176\]
*898 pal_I\.sr\.internal_ff_chain\[177\]
*899 pal_I\.sr\.internal_ff_chain\[178\]
*900 pal_I\.sr\.internal_ff_chain\[179\]
*901 pal_I\.sr\.internal_ff_chain\[17\]
*902 pal_I\.sr\.internal_ff_chain\[180\]
*903 pal_I\.sr\.internal_ff_chain\[181\]
*904 pal_I\.sr\.internal_ff_chain\[182\]
*905 pal_I\.sr\.internal_ff_chain\[183\]
*906 pal_I\.sr\.internal_ff_chain\[184\]
*907 pal_I\.sr\.internal_ff_chain\[185\]
*908 pal_I\.sr\.internal_ff_chain\[186\]
*909 pal_I\.sr\.internal_ff_chain\[187\]
*910 pal_I\.sr\.internal_ff_chain\[188\]
*911 pal_I\.sr\.internal_ff_chain\[189\]
*912 pal_I\.sr\.internal_ff_chain\[18\]
*913 pal_I\.sr\.internal_ff_chain\[190\]
*914 pal_I\.sr\.internal_ff_chain\[191\]
*915 pal_I\.sr\.internal_ff_chain\[192\]
*916 pal_I\.sr\.internal_ff_chain\[193\]
*917 pal_I\.sr\.internal_ff_chain\[194\]
*918 pal_I\.sr\.internal_ff_chain\[195\]
*919 pal_I\.sr\.internal_ff_chain\[196\]
*920 pal_I\.sr\.internal_ff_chain\[197\]
*921 pal_I\.sr\.internal_ff_chain\[198\]
*922 pal_I\.sr\.internal_ff_chain\[199\]
*923 pal_I\.sr\.internal_ff_chain\[19\]
*924 pal_I\.sr\.internal_ff_chain\[1\]
*925 pal_I\.sr\.internal_ff_chain\[200\]
*926 pal_I\.sr\.internal_ff_chain\[201\]
*927 pal_I\.sr\.internal_ff_chain\[202\]
*928 pal_I\.sr\.internal_ff_chain\[203\]
*929 pal_I\.sr\.internal_ff_chain\[204\]
*930 pal_I\.sr\.internal_ff_chain\[205\]
*931 pal_I\.sr\.internal_ff_chain\[206\]
*932 pal_I\.sr\.internal_ff_chain\[207\]
*933 pal_I\.sr\.internal_ff_chain\[208\]
*934 pal_I\.sr\.internal_ff_chain\[209\]
*935 pal_I\.sr\.internal_ff_chain\[20\]
*936 pal_I\.sr\.internal_ff_chain\[210\]
*937 pal_I\.sr\.internal_ff_chain\[211\]
*938 pal_I\.sr\.internal_ff_chain\[212\]
*939 pal_I\.sr\.internal_ff_chain\[213\]
*940 pal_I\.sr\.internal_ff_chain\[214\]
*941 pal_I\.sr\.internal_ff_chain\[215\]
*942 pal_I\.sr\.internal_ff_chain\[216\]
*943 pal_I\.sr\.internal_ff_chain\[217\]
*944 pal_I\.sr\.internal_ff_chain\[218\]
*945 pal_I\.sr\.internal_ff_chain\[219\]
*946 pal_I\.sr\.internal_ff_chain\[21\]
*947 pal_I\.sr\.internal_ff_chain\[220\]
*948 pal_I\.sr\.internal_ff_chain\[221\]
*949 pal_I\.sr\.internal_ff_chain\[222\]
*950 pal_I\.sr\.internal_ff_chain\[223\]
*951 pal_I\.sr\.internal_ff_chain\[224\]
*952 pal_I\.sr\.internal_ff_chain\[225\]
*953 pal_I\.sr\.internal_ff_chain\[226\]
*954 pal_I\.sr\.internal_ff_chain\[227\]
*955 pal_I\.sr\.internal_ff_chain\[228\]
*956 pal_I\.sr\.internal_ff_chain\[229\]
*957 pal_I\.sr\.internal_ff_chain\[22\]
*958 pal_I\.sr\.internal_ff_chain\[230\]
*959 pal_I\.sr\.internal_ff_chain\[23\]
*960 pal_I\.sr\.internal_ff_chain\[24\]
*961 pal_I\.sr\.internal_ff_chain\[25\]
*962 pal_I\.sr\.internal_ff_chain\[26\]
*963 pal_I\.sr\.internal_ff_chain\[27\]
*964 pal_I\.sr\.internal_ff_chain\[28\]
*965 pal_I\.sr\.internal_ff_chain\[29\]
*966 pal_I\.sr\.internal_ff_chain\[2\]
*967 pal_I\.sr\.internal_ff_chain\[30\]
*968 pal_I\.sr\.internal_ff_chain\[31\]
*969 pal_I\.sr\.internal_ff_chain\[32\]
*970 pal_I\.sr\.internal_ff_chain\[33\]
*971 pal_I\.sr\.internal_ff_chain\[34\]
*972 pal_I\.sr\.internal_ff_chain\[35\]
*973 pal_I\.sr\.internal_ff_chain\[36\]
*974 pal_I\.sr\.internal_ff_chain\[37\]
*975 pal_I\.sr\.internal_ff_chain\[38\]
*976 pal_I\.sr\.internal_ff_chain\[39\]
*977 pal_I\.sr\.internal_ff_chain\[3\]
*978 pal_I\.sr\.internal_ff_chain\[40\]
*979 pal_I\.sr\.internal_ff_chain\[41\]
*980 pal_I\.sr\.internal_ff_chain\[42\]
*981 pal_I\.sr\.internal_ff_chain\[43\]
*982 pal_I\.sr\.internal_ff_chain\[44\]
*983 pal_I\.sr\.internal_ff_chain\[45\]
*984 pal_I\.sr\.internal_ff_chain\[46\]
*985 pal_I\.sr\.internal_ff_chain\[47\]
*986 pal_I\.sr\.internal_ff_chain\[48\]
*987 pal_I\.sr\.internal_ff_chain\[49\]
*988 pal_I\.sr\.internal_ff_chain\[4\]
*989 pal_I\.sr\.internal_ff_chain\[50\]
*990 pal_I\.sr\.internal_ff_chain\[51\]
*991 pal_I\.sr\.internal_ff_chain\[52\]
*992 pal_I\.sr\.internal_ff_chain\[53\]
*993 pal_I\.sr\.internal_ff_chain\[54\]
*994 pal_I\.sr\.internal_ff_chain\[55\]
*995 pal_I\.sr\.internal_ff_chain\[56\]
*996 pal_I\.sr\.internal_ff_chain\[57\]
*997 pal_I\.sr\.internal_ff_chain\[58\]
*998 pal_I\.sr\.internal_ff_chain\[59\]
*999 pal_I\.sr\.internal_ff_chain\[5\]
*1000 pal_I\.sr\.internal_ff_chain\[60\]
*1001 pal_I\.sr\.internal_ff_chain\[61\]
*1002 pal_I\.sr\.internal_ff_chain\[62\]
*1003 pal_I\.sr\.internal_ff_chain\[63\]
*1004 pal_I\.sr\.internal_ff_chain\[64\]
*1005 pal_I\.sr\.internal_ff_chain\[65\]
*1006 pal_I\.sr\.internal_ff_chain\[66\]
*1007 pal_I\.sr\.internal_ff_chain\[67\]
*1008 pal_I\.sr\.internal_ff_chain\[68\]
*1009 pal_I\.sr\.internal_ff_chain\[69\]
*1010 pal_I\.sr\.internal_ff_chain\[6\]
*1011 pal_I\.sr\.internal_ff_chain\[70\]
*1012 pal_I\.sr\.internal_ff_chain\[71\]
*1013 pal_I\.sr\.internal_ff_chain\[72\]
*1014 pal_I\.sr\.internal_ff_chain\[73\]
*1015 pal_I\.sr\.internal_ff_chain\[74\]
*1016 pal_I\.sr\.internal_ff_chain\[75\]
*1017 pal_I\.sr\.internal_ff_chain\[76\]
*1018 pal_I\.sr\.internal_ff_chain\[77\]
*1019 pal_I\.sr\.internal_ff_chain\[78\]
*1020 pal_I\.sr\.internal_ff_chain\[79\]
*1021 pal_I\.sr\.internal_ff_chain\[7\]
*1022 pal_I\.sr\.internal_ff_chain\[80\]
*1023 pal_I\.sr\.internal_ff_chain\[81\]
*1024 pal_I\.sr\.internal_ff_chain\[82\]
*1025 pal_I\.sr\.internal_ff_chain\[83\]
*1026 pal_I\.sr\.internal_ff_chain\[84\]
*1027 pal_I\.sr\.internal_ff_chain\[85\]
*1028 pal_I\.sr\.internal_ff_chain\[86\]
*1029 pal_I\.sr\.internal_ff_chain\[87\]
*1030 pal_I\.sr\.internal_ff_chain\[88\]
*1031 pal_I\.sr\.internal_ff_chain\[89\]
*1032 pal_I\.sr\.internal_ff_chain\[8\]
*1033 pal_I\.sr\.internal_ff_chain\[90\]
*1034 pal_I\.sr\.internal_ff_chain\[91\]
*1035 pal_I\.sr\.internal_ff_chain\[92\]
*1036 pal_I\.sr\.internal_ff_chain\[93\]
*1037 pal_I\.sr\.internal_ff_chain\[94\]
*1038 pal_I\.sr\.internal_ff_chain\[95\]
*1039 pal_I\.sr\.internal_ff_chain\[96\]
*1040 pal_I\.sr\.internal_ff_chain\[97\]
*1041 pal_I\.sr\.internal_ff_chain\[98\]
*1042 pal_I\.sr\.internal_ff_chain\[99\]
*1043 pal_I\.sr\.internal_ff_chain\[9\]
*1044 FILLER_0_0_107
*1045 FILLER_0_0_111
*1046 FILLER_0_0_113
*1047 FILLER_0_0_125
*1048 FILLER_0_0_133
*1049 FILLER_0_0_138
*1050 FILLER_0_0_141
*1051 FILLER_0_0_15
*1052 FILLER_0_0_153
*1053 FILLER_0_0_165
*1054 FILLER_0_0_169
*1055 FILLER_0_0_193
*1056 FILLER_0_0_197
*1057 FILLER_0_0_209
*1058 FILLER_0_0_225
*1059 FILLER_0_0_236
*1060 FILLER_0_0_248
*1061 FILLER_0_0_253
*1062 FILLER_0_0_259
*1063 FILLER_0_0_27
*1064 FILLER_0_0_271
*1065 FILLER_0_0_279
*1066 FILLER_0_0_281
*1067 FILLER_0_0_29
*1068 FILLER_0_0_293
*1069 FILLER_0_0_3
*1070 FILLER_0_0_305
*1071 FILLER_0_0_309
*1072 FILLER_0_0_321
*1073 FILLER_0_0_333
*1074 FILLER_0_0_41
*1075 FILLER_0_0_53
*1076 FILLER_0_0_57
*1077 FILLER_0_0_64
*1078 FILLER_0_0_72
*1079 FILLER_0_0_78
*1080 FILLER_0_0_85
*1081 FILLER_0_0_97
*1082 FILLER_0_10_11
*1083 FILLER_0_10_134
*1084 FILLER_0_10_141
*1085 FILLER_0_10_149
*1086 FILLER_0_10_233
*1087 FILLER_0_10_239
*1088 FILLER_0_10_246
*1089 FILLER_0_10_253
*1090 FILLER_0_10_265
*1091 FILLER_0_10_290
*1092 FILLER_0_10_299
*1093 FILLER_0_10_3
*1094 FILLER_0_10_305
*1095 FILLER_0_10_325
*1096 FILLER_0_10_333
*1097 FILLER_0_10_34
*1098 FILLER_0_10_46
*1099 FILLER_0_10_58
*1100 FILLER_0_10_73
*1101 FILLER_0_10_81
*1102 FILLER_0_10_85
*1103 FILLER_0_10_97
*1104 FILLER_0_11_103
*1105 FILLER_0_11_111
*1106 FILLER_0_11_113
*1107 FILLER_0_11_121
*1108 FILLER_0_11_138
*1109 FILLER_0_11_146
*1110 FILLER_0_11_150
*1111 FILLER_0_11_162
*1112 FILLER_0_11_189
*1113 FILLER_0_11_209
*1114 FILLER_0_11_235
*1115 FILLER_0_11_253
*1116 FILLER_0_11_265
*1117 FILLER_0_11_274
*1118 FILLER_0_11_279
*1119 FILLER_0_11_281
*1120 FILLER_0_11_293
*1121 FILLER_0_11_3
*1122 FILLER_0_11_301
*1123 FILLER_0_11_313
*1124 FILLER_0_11_330
*1125 FILLER_0_11_334
*1126 FILLER_0_11_39
*1127 FILLER_0_11_51
*1128 FILLER_0_11_55
*1129 FILLER_0_11_82
*1130 FILLER_0_11_9
*1131 FILLER_0_11_91
*1132 FILLER_0_12_106
*1133 FILLER_0_12_112
*1134 FILLER_0_12_124
*1135 FILLER_0_12_136
*1136 FILLER_0_12_141
*1137 FILLER_0_12_150
*1138 FILLER_0_12_186
*1139 FILLER_0_12_194
*1140 FILLER_0_12_197
*1141 FILLER_0_12_209
*1142 FILLER_0_12_23
*1143 FILLER_0_12_27
*1144 FILLER_0_12_29
*1145 FILLER_0_12_3
*1146 FILLER_0_12_301
*1147 FILLER_0_12_307
*1148 FILLER_0_12_325
*1149 FILLER_0_12_333
*1150 FILLER_0_12_49
*1151 FILLER_0_13_11
*1152 FILLER_0_13_111
*1153 FILLER_0_13_121
*1154 FILLER_0_13_134
*1155 FILLER_0_13_142
*1156 FILLER_0_13_151
*1157 FILLER_0_13_16
*1158 FILLER_0_13_166
*1159 FILLER_0_13_169
*1160 FILLER_0_13_181
*1161 FILLER_0_13_201
*1162 FILLER_0_13_241
*1163 FILLER_0_13_250
*1164 FILLER_0_13_259
*1165 FILLER_0_13_271
*1166 FILLER_0_13_279
*1167 FILLER_0_13_28
*1168 FILLER_0_13_286
*1169 FILLER_0_13_290
*1170 FILLER_0_13_296
*1171 FILLER_0_13_3
*1172 FILLER_0_13_302
*1173 FILLER_0_13_323
*1174 FILLER_0_13_40
*1175 FILLER_0_13_52
*1176 FILLER_0_13_82
*1177 FILLER_0_13_94
*1178 FILLER_0_14_100
*1179 FILLER_0_14_120
*1180 FILLER_0_14_132
*1181 FILLER_0_14_144
*1182 FILLER_0_14_156
*1183 FILLER_0_14_160
*1184 FILLER_0_14_181
*1185 FILLER_0_14_185
*1186 FILLER_0_14_206
*1187 FILLER_0_14_218
*1188 FILLER_0_14_226
*1189 FILLER_0_14_234
*1190 FILLER_0_14_242
*1191 FILLER_0_14_250
*1192 FILLER_0_14_253
*1193 FILLER_0_14_27
*1194 FILLER_0_14_272
*1195 FILLER_0_14_290
*1196 FILLER_0_14_294
*1197 FILLER_0_14_3
*1198 FILLER_0_14_300
*1199 FILLER_0_14_309
*1200 FILLER_0_14_317
*1201 FILLER_0_14_32
*1202 FILLER_0_14_329
*1203 FILLER_0_14_44
*1204 FILLER_0_14_56
*1205 FILLER_0_14_70
*1206 FILLER_0_14_82
*1207 FILLER_0_14_88
*1208 FILLER_0_15_105
*1209 FILLER_0_15_11
*1210 FILLER_0_15_129
*1211 FILLER_0_15_164
*1212 FILLER_0_15_188
*1213 FILLER_0_15_199
*1214 FILLER_0_15_208
*1215 FILLER_0_15_220
*1216 FILLER_0_15_225
*1217 FILLER_0_15_240
*1218 FILLER_0_15_252
*1219 FILLER_0_15_264
*1220 FILLER_0_15_271
*1221 FILLER_0_15_297
*1222 FILLER_0_15_3
*1223 FILLER_0_15_305
*1224 FILLER_0_15_309
*1225 FILLER_0_15_321
*1226 FILLER_0_15_333
*1227 FILLER_0_15_50
*1228 FILLER_0_15_93
*1229 FILLER_0_16_132
*1230 FILLER_0_16_136
*1231 FILLER_0_16_141
*1232 FILLER_0_16_145
*1233 FILLER_0_16_168
*1234 FILLER_0_16_208
*1235 FILLER_0_16_214
*1236 FILLER_0_16_24
*1237 FILLER_0_16_253
*1238 FILLER_0_16_259
*1239 FILLER_0_16_278
*1240 FILLER_0_16_289
*1241 FILLER_0_16_297
*1242 FILLER_0_16_3
*1243 FILLER_0_16_325
*1244 FILLER_0_16_333
*1245 FILLER_0_16_47
*1246 FILLER_0_16_63
*1247 FILLER_0_16_7
*1248 FILLER_0_16_94
*1249 FILLER_0_17_11
*1250 FILLER_0_17_138
*1251 FILLER_0_17_166
*1252 FILLER_0_17_176
*1253 FILLER_0_17_191
*1254 FILLER_0_17_200
*1255 FILLER_0_17_213
*1256 FILLER_0_17_225
*1257 FILLER_0_17_240
*1258 FILLER_0_17_278
*1259 FILLER_0_17_28
*1260 FILLER_0_17_290
*1261 FILLER_0_17_296
*1262 FILLER_0_17_3
*1263 FILLER_0_17_334
*1264 FILLER_0_17_52
*1265 FILLER_0_17_57
*1266 FILLER_0_17_61
*1267 FILLER_0_17_78
*1268 FILLER_0_17_82
*1269 FILLER_0_17_88
*1270 FILLER_0_18_138
*1271 FILLER_0_18_141
*1272 FILLER_0_18_158
*1273 FILLER_0_18_176
*1274 FILLER_0_18_182
*1275 FILLER_0_18_191
*1276 FILLER_0_18_195
*1277 FILLER_0_18_213
*1278 FILLER_0_18_237
*1279 FILLER_0_18_243
*1280 FILLER_0_18_247
*1281 FILLER_0_18_251
*1282 FILLER_0_18_26
*1283 FILLER_0_18_277
*1284 FILLER_0_18_289
*1285 FILLER_0_18_297
*1286 FILLER_0_18_3
*1287 FILLER_0_18_325
*1288 FILLER_0_18_333
*1289 FILLER_0_18_34
*1290 FILLER_0_18_45
*1291 FILLER_0_18_57
*1292 FILLER_0_18_69
*1293 FILLER_0_18_78
*1294 FILLER_0_18_85
*1295 FILLER_0_19_108
*1296 FILLER_0_19_129
*1297 FILLER_0_19_137
*1298 FILLER_0_19_173
*1299 FILLER_0_19_178
*1300 FILLER_0_19_198
*1301 FILLER_0_19_210
*1302 FILLER_0_19_222
*1303 FILLER_0_19_225
*1304 FILLER_0_19_235
*1305 FILLER_0_19_247
*1306 FILLER_0_19_258
*1307 FILLER_0_19_27
*1308 FILLER_0_19_275
*1309 FILLER_0_19_279
*1310 FILLER_0_19_292
*1311 FILLER_0_19_3
*1312 FILLER_0_19_304
*1313 FILLER_0_19_32
*1314 FILLER_0_19_323
*1315 FILLER_0_19_54
*1316 FILLER_0_19_62
*1317 FILLER_0_19_73
*1318 FILLER_0_19_85
*1319 FILLER_0_19_97
*1320 FILLER_0_1_129
*1321 FILLER_0_1_15
*1322 FILLER_0_1_151
*1323 FILLER_0_1_169
*1324 FILLER_0_1_204
*1325 FILLER_0_1_225
*1326 FILLER_0_1_232
*1327 FILLER_0_1_250
*1328 FILLER_0_1_27
*1329 FILLER_0_1_297
*1330 FILLER_0_1_3
*1331 FILLER_0_1_308
*1332 FILLER_0_1_328
*1333 FILLER_0_1_334
*1334 FILLER_0_1_39
*1335 FILLER_0_1_47
*1336 FILLER_0_1_73
*1337 FILLER_0_20_101
*1338 FILLER_0_20_11
*1339 FILLER_0_20_110
*1340 FILLER_0_20_114
*1341 FILLER_0_20_120
*1342 FILLER_0_20_132
*1343 FILLER_0_20_141
*1344 FILLER_0_20_153
*1345 FILLER_0_20_165
*1346 FILLER_0_20_177
*1347 FILLER_0_20_213
*1348 FILLER_0_20_225
*1349 FILLER_0_20_253
*1350 FILLER_0_20_257
*1351 FILLER_0_20_26
*1352 FILLER_0_20_261
*1353 FILLER_0_20_278
*1354 FILLER_0_20_285
*1355 FILLER_0_20_291
*1356 FILLER_0_20_295
*1357 FILLER_0_20_3
*1358 FILLER_0_20_303
*1359 FILLER_0_20_322
*1360 FILLER_0_20_334
*1361 FILLER_0_20_73
*1362 FILLER_0_20_89
*1363 FILLER_0_21_107
*1364 FILLER_0_21_111
*1365 FILLER_0_21_143
*1366 FILLER_0_21_149
*1367 FILLER_0_21_166
*1368 FILLER_0_21_174
*1369 FILLER_0_21_218
*1370 FILLER_0_21_225
*1371 FILLER_0_21_255
*1372 FILLER_0_21_273
*1373 FILLER_0_21_3
*1374 FILLER_0_21_334
*1375 FILLER_0_21_35
*1376 FILLER_0_21_47
*1377 FILLER_0_21_55
*1378 FILLER_0_21_57
*1379 FILLER_0_21_9
*1380 FILLER_0_21_95
*1381 FILLER_0_22_109
*1382 FILLER_0_22_11
*1383 FILLER_0_22_137
*1384 FILLER_0_22_157
*1385 FILLER_0_22_165
*1386 FILLER_0_22_194
*1387 FILLER_0_22_206
*1388 FILLER_0_22_218
*1389 FILLER_0_22_247
*1390 FILLER_0_22_251
*1391 FILLER_0_22_263
*1392 FILLER_0_22_267
*1393 FILLER_0_22_29
*1394 FILLER_0_22_292
*1395 FILLER_0_22_3
*1396 FILLER_0_22_304
*1397 FILLER_0_22_309
*1398 FILLER_0_22_329
*1399 FILLER_0_22_41
*1400 FILLER_0_22_47
*1401 FILLER_0_22_52
*1402 FILLER_0_22_85
*1403 FILLER_0_22_97
*1404 FILLER_0_23_106
*1405 FILLER_0_23_125
*1406 FILLER_0_23_133
*1407 FILLER_0_23_144
*1408 FILLER_0_23_15
*1409 FILLER_0_23_157
*1410 FILLER_0_23_165
*1411 FILLER_0_23_169
*1412 FILLER_0_23_181
*1413 FILLER_0_23_192
*1414 FILLER_0_23_199
*1415 FILLER_0_23_206
*1416 FILLER_0_23_218
*1417 FILLER_0_23_225
*1418 FILLER_0_23_235
*1419 FILLER_0_23_24
*1420 FILLER_0_23_247
*1421 FILLER_0_23_259
*1422 FILLER_0_23_271
*1423 FILLER_0_23_275
*1424 FILLER_0_23_279
*1425 FILLER_0_23_286
*1426 FILLER_0_23_292
*1427 FILLER_0_23_296
*1428 FILLER_0_23_3
*1429 FILLER_0_23_308
*1430 FILLER_0_23_319
*1431 FILLER_0_23_331
*1432 FILLER_0_23_36
*1433 FILLER_0_23_48
*1434 FILLER_0_23_57
*1435 FILLER_0_23_82
*1436 FILLER_0_23_94
*1437 FILLER_0_24_11
*1438 FILLER_0_24_130
*1439 FILLER_0_24_138
*1440 FILLER_0_24_141
*1441 FILLER_0_24_153
*1442 FILLER_0_24_157
*1443 FILLER_0_24_177
*1444 FILLER_0_24_189
*1445 FILLER_0_24_204
*1446 FILLER_0_24_216
*1447 FILLER_0_24_246
*1448 FILLER_0_24_253
*1449 FILLER_0_24_265
*1450 FILLER_0_24_280
*1451 FILLER_0_24_292
*1452 FILLER_0_24_3
*1453 FILLER_0_24_300
*1454 FILLER_0_24_325
*1455 FILLER_0_24_333
*1456 FILLER_0_24_34
*1457 FILLER_0_24_44
*1458 FILLER_0_24_56
*1459 FILLER_0_24_85
*1460 FILLER_0_25_113
*1461 FILLER_0_25_136
*1462 FILLER_0_25_144
*1463 FILLER_0_25_152
*1464 FILLER_0_25_160
*1465 FILLER_0_25_166
*1466 FILLER_0_25_176
*1467 FILLER_0_25_187
*1468 FILLER_0_25_207
*1469 FILLER_0_25_211
*1470 FILLER_0_25_219
*1471 FILLER_0_25_223
*1472 FILLER_0_25_225
*1473 FILLER_0_25_241
*1474 FILLER_0_25_253
*1475 FILLER_0_25_27
*1476 FILLER_0_25_270
*1477 FILLER_0_25_3
*1478 FILLER_0_25_334
*1479 FILLER_0_25_52
*1480 FILLER_0_25_57
*1481 FILLER_0_25_63
*1482 FILLER_0_25_7
*1483 FILLER_0_26_105
*1484 FILLER_0_26_129
*1485 FILLER_0_26_141
*1486 FILLER_0_26_153
*1487 FILLER_0_26_174
*1488 FILLER_0_26_182
*1489 FILLER_0_26_190