*SPEF "ieee 1481-1999"
*DESIGN "tt_um_MichaelBell_latch_mem"
*DATE "19:48:16 Friday April 19, 2024"
*VENDOR "The OpenROAD Project"
*PROGRAM "OpenROAD"
*VERSION "0889970d1790a2617e69f253221b8bd7626e51dc"
*DESIGN_FLOW "NAME_SCOPE LOCAL" "PIN_CAP NONE"
*DIVIDER /
*DELIMITER :
*BUS_DELIMITER []
*T_UNIT 1 NS
*C_UNIT 1 PF
*R_UNIT 1 OHM
*L_UNIT 1 HENRY

*NAME_MAP
*3 clk
*4 ena
*5 rst_n
*6 ui_in[0]
*7 ui_in[1]
*8 ui_in[2]
*9 ui_in[3]
*10 ui_in[4]
*11 ui_in[5]
*12 ui_in[6]
*13 ui_in[7]
*14 uio_in[0]
*15 uio_in[1]
*16 uio_in[2]
*17 uio_in[3]
*18 uio_in[4]
*19 uio_in[5]
*20 uio_in[6]
*21 uio_in[7]
*22 net96
*23 net97
*24 net98
*25 net99
*26 net100
*27 net101
*28 net102
*29 net103
*30 net104
*31 net105
*32 net106
*33 net107
*34 net108
*35 net109
*36 net110
*37 net111
*38 uo_out[0]
*39 uo_out[1]
*40 uo_out[2]
*41 uo_out[3]
*42 uo_out[4]
*43 uo_out[5]
*44 uo_out[6]
*45 uo_out[7]
*46 RAM\[0\]\[0\]
*47 RAM\[0\]\[1\]
*48 RAM\[0\]\[2\]
*49 RAM\[0\]\[3\]
*50 RAM\[0\]\[4\]
*51 RAM\[0\]\[5\]
*52 RAM\[0\]\[6\]
*53 RAM\[0\]\[7\]
*54 RAM\[10\]\[0\]
*55 RAM\[10\]\[1\]
*56 RAM\[10\]\[2\]
*57 RAM\[10\]\[3\]
*58 RAM\[10\]\[4\]
*59 RAM\[10\]\[5\]
*60 RAM\[10\]\[6\]
*61 RAM\[10\]\[7\]
*62 RAM\[11\]\[0\]
*63 RAM\[11\]\[1\]
*64 RAM\[11\]\[2\]
*65 RAM\[11\]\[3\]
*66 RAM\[11\]\[4\]
*67 RAM\[11\]\[5\]
*68 RAM\[11\]\[6\]
*69 RAM\[11\]\[7\]
*70 RAM\[12\]\[0\]
*71 RAM\[12\]\[1\]
*72 RAM\[12\]\[2\]
*73 RAM\[12\]\[3\]
*74 RAM\[12\]\[4\]
*75 RAM\[12\]\[5\]
*76 RAM\[12\]\[6\]
*77 RAM\[12\]\[7\]
*78 RAM\[13\]\[0\]
*79 RAM\[13\]\[1\]
*80 RAM\[13\]\[2\]
*81 RAM\[13\]\[3\]
*82 RAM\[13\]\[4\]
*83 RAM\[13\]\[5\]
*84 RAM\[13\]\[6\]
*85 RAM\[13\]\[7\]
*86 RAM\[14\]\[0\]
*87 RAM\[14\]\[1\]
*88 RAM\[14\]\[2\]
*89 RAM\[14\]\[3\]
*90 RAM\[14\]\[4\]
*91 RAM\[14\]\[5\]
*92 RAM\[14\]\[6\]
*93 RAM\[14\]\[7\]
*94 RAM\[15\]\[0\]
*95 RAM\[15\]\[1\]
*96 RAM\[15\]\[2\]
*97 RAM\[15\]\[3\]
*98 RAM\[15\]\[4\]
*99 RAM\[15\]\[5\]
*100 RAM\[15\]\[6\]
*101 RAM\[15\]\[7\]
*102 RAM\[16\]\[0\]
*103 RAM\[16\]\[1\]
*104 RAM\[16\]\[2\]
*105 RAM\[16\]\[3\]
*106 RAM\[16\]\[4\]
*107 RAM\[16\]\[5\]
*108 RAM\[16\]\[6\]
*109 RAM\[16\]\[7\]
*110 RAM\[17\]\[0\]
*111 RAM\[17\]\[1\]
*112 RAM\[17\]\[2\]
*113 RAM\[17\]\[3\]
*114 RAM\[17\]\[4\]
*115 RAM\[17\]\[5\]
*116 RAM\[17\]\[6\]
*117 RAM\[17\]\[7\]
*118 RAM\[18\]\[0\]
*119 RAM\[18\]\[1\]
*120 RAM\[18\]\[2\]
*121 RAM\[18\]\[3\]
*122 RAM\[18\]\[4\]
*123 RAM\[18\]\[5\]
*124 RAM\[18\]\[6\]
*125 RAM\[18\]\[7\]
*126 RAM\[19\]\[0\]
*127 RAM\[19\]\[1\]
*128 RAM\[19\]\[2\]
*129 RAM\[19\]\[3\]
*130 RAM\[19\]\[4\]
*131 RAM\[19\]\[5\]
*132 RAM\[19\]\[6\]
*133 RAM\[19\]\[7\]
*134 RAM\[1\]\[0\]
*135 RAM\[1\]\[1\]
*136 RAM\[1\]\[2\]
*137 RAM\[1\]\[3\]
*138 RAM\[1\]\[4\]
*139 RAM\[1\]\[5\]
*140 RAM\[1\]\[6\]
*141 RAM\[1\]\[7\]
*142 RAM\[20\]\[0\]
*143 RAM\[20\]\[1\]
*144 RAM\[20\]\[2\]
*145 RAM\[20\]\[3\]
*146 RAM\[20\]\[4\]
*147 RAM\[20\]\[5\]
*148 RAM\[20\]\[6\]
*149 RAM\[20\]\[7\]
*150 RAM\[21\]\[0\]
*151 RAM\[21\]\[1\]
*152 RAM\[21\]\[2\]
*153 RAM\[21\]\[3\]
*154 RAM\[21\]\[4\]
*155 RAM\[21\]\[5\]
*156 RAM\[21\]\[6\]
*157 RAM\[21\]\[7\]
*158 RAM\[22\]\[0\]
*159 RAM\[22\]\[1\]
*160 RAM\[22\]\[2\]
*161 RAM\[22\]\[3\]
*162 RAM\[22\]\[4\]
*163 RAM\[22\]\[5\]
*164 RAM\[22\]\[6\]
*165 RAM\[22\]\[7\]
*166 RAM\[23\]\[0\]
*167 RAM\[23\]\[1\]
*168 RAM\[23\]\[2\]
*169 RAM\[23\]\[3\]
*170 RAM\[23\]\[4\]
*171 RAM\[23\]\[5\]
*172 RAM\[23\]\[6\]
*173 RAM\[23\]\[7\]
*174 RAM\[24\]\[0\]
*175 RAM\[24\]\[1\]
*176 RAM\[24\]\[2\]
*177 RAM\[24\]\[3\]
*178 RAM\[24\]\[4\]
*179 RAM\[24\]\[5\]
*180 RAM\[24\]\[6\]
*181 RAM\[24\]\[7\]
*182 RAM\[25\]\[0\]
*183 RAM\[25\]\[1\]
*184 RAM\[25\]\[2\]
*185 RAM\[25\]\[3\]
*186 RAM\[25\]\[4\]
*187 RAM\[25\]\[5\]
*188 RAM\[25\]\[6\]
*189 RAM\[25\]\[7\]
*190 RAM\[26\]\[0\]
*191 RAM\[26\]\[1\]
*192 RAM\[26\]\[2\]
*193 RAM\[26\]\[3\]
*194 RAM\[26\]\[4\]
*195 RAM\[26\]\[5\]
*196 RAM\[26\]\[6\]
*197 RAM\[26\]\[7\]
*198 RAM\[27\]\[0\]
*199 RAM\[27\]\[1\]
*200 RAM\[27\]\[2\]
*201 RAM\[27\]\[3\]
*202 RAM\[27\]\[4\]
*203 RAM\[27\]\[5\]
*204 RAM\[27\]\[6\]
*205 RAM\[27\]\[7\]
*206 RAM\[28\]\[0\]
*207 RAM\[28\]\[1\]
*208 RAM\[28\]\[2\]
*209 RAM\[28\]\[3\]
*210 RAM\[28\]\[4\]
*211 RAM\[28\]\[5\]
*212 RAM\[28\]\[6\]
*213 RAM\[28\]\[7\]
*214 RAM\[29\]\[0\]
*215 RAM\[29\]\[1\]
*216 RAM\[29\]\[2\]
*217 RAM\[29\]\[3\]
*218 RAM\[29\]\[4\]
*219 RAM\[29\]\[5\]
*220 RAM\[29\]\[6\]
*221 RAM\[29\]\[7\]
*222 RAM\[2\]\[0\]
*223 RAM\[2\]\[1\]
*224 RAM\[2\]\[2\]
*225 RAM\[2\]\[3\]
*226 RAM\[2\]\[4\]
*227 RAM\[2\]\[5\]
*228 RAM\[2\]\[6\]
*229 RAM\[2\]\[7\]
*230 RAM\[30\]\[0\]
*231 RAM\[30\]\[1\]
*232 RAM\[30\]\[2\]
*233 RAM\[30\]\[3\]
*234 RAM\[30\]\[4\]
*235 RAM\[30\]\[5\]
*236 RAM\[30\]\[6\]
*237 RAM\[30\]\[7\]
*238 RAM\[31\]\[0\]
*239 RAM\[31\]\[1\]
*240 RAM\[31\]\[2\]
*241 RAM\[31\]\[3\]
*242 RAM\[31\]\[4\]
*243 RAM\[31\]\[5\]
*244 RAM\[31\]\[6\]
*245 RAM\[31\]\[7\]
*246 RAM\[32\]\[0\]
*247 RAM\[32\]\[1\]
*248 RAM\[32\]\[2\]
*249 RAM\[32\]\[3\]
*250 RAM\[32\]\[4\]
*251 RAM\[32\]\[5\]
*252 RAM\[32\]\[6\]
*253 RAM\[32\]\[7\]
*254 RAM\[33\]\[0\]
*255 RAM\[33\]\[1\]
*256 RAM\[33\]\[2\]
*257 RAM\[33\]\[3\]
*258 RAM\[33\]\[4\]
*259 RAM\[33\]\[5\]
*260 RAM\[33\]\[6\]
*261 RAM\[33\]\[7\]
*262 RAM\[34\]\[0\]
*263 RAM\[34\]\[1\]
*264 RAM\[34\]\[2\]
*265 RAM\[34\]\[3\]
*266 RAM\[34\]\[4\]
*267 RAM\[34\]\[5\]
*268 RAM\[34\]\[6\]
*269 RAM\[34\]\[7\]
*270 RAM\[35\]\[0\]
*271 RAM\[35\]\[1\]
*272 RAM\[35\]\[2\]
*273 RAM\[35\]\[3\]
*274 RAM\[35\]\[4\]
*275 RAM\[35\]\[5\]
*276 RAM\[35\]\[6\]
*277 RAM\[35\]\[7\]
*278 RAM\[36\]\[0\]
*279 RAM\[36\]\[1\]
*280 RAM\[36\]\[2\]
*281 RAM\[36\]\[3\]
*282 RAM\[36\]\[4\]
*283 RAM\[36\]\[5\]
*284 RAM\[36\]\[6\]
*285 RAM\[36\]\[7\]
*286 RAM\[37\]\[0\]
*287 RAM\[37\]\[1\]
*288 RAM\[37\]\[2\]
*289 RAM\[37\]\[3\]
*290 RAM\[37\]\[4\]
*291 RAM\[37\]\[5\]
*292 RAM\[37\]\[6\]
*293 RAM\[37\]\[7\]
*294 RAM\[38\]\[0\]
*295 RAM\[38\]\[1\]
*296 RAM\[38\]\[2\]
*297 RAM\[38\]\[3\]
*298 RAM\[38\]\[4\]
*299 RAM\[38\]\[5\]
*300 RAM\[38\]\[6\]
*301 RAM\[38\]\[7\]
*302 RAM\[39\]\[0\]
*303 RAM\[39\]\[1\]
*304 RAM\[39\]\[2\]
*305 RAM\[39\]\[3\]
*306 RAM\[39\]\[4\]
*307 RAM\[39\]\[5\]
*308 RAM\[39\]\[6\]
*309 RAM\[39\]\[7\]
*310 RAM\[3\]\[0\]
*311 RAM\[3\]\[1\]
*312 RAM\[3\]\[2\]
*313 RAM\[3\]\[3\]
*314 RAM\[3\]\[4\]
*315 RAM\[3\]\[5\]
*316 RAM\[3\]\[6\]
*317 RAM\[3\]\[7\]
*318 RAM\[40\]\[0\]
*319 RAM\[40\]\[1\]
*320 RAM\[40\]\[2\]
*321 RAM\[40\]\[3\]
*322 RAM\[40\]\[4\]
*323 RAM\[40\]\[5\]
*324 RAM\[40\]\[6\]
*325 RAM\[40\]\[7\]
*326 RAM\[41\]\[0\]
*327 RAM\[41\]\[1\]
*328 RAM\[41\]\[2\]
*329 RAM\[41\]\[3\]
*330 RAM\[41\]\[4\]
*331 RAM\[41\]\[5\]
*332 RAM\[41\]\[6\]
*333 RAM\[41\]\[7\]
*334 RAM\[42\]\[0\]
*335 RAM\[42\]\[1\]
*336 RAM\[42\]\[2\]
*337 RAM\[42\]\[3\]
*338 RAM\[42\]\[4\]
*339 RAM\[42\]\[5\]
*340 RAM\[42\]\[6\]
*341 RAM\[42\]\[7\]
*342 RAM\[43\]\[0\]
*343 RAM\[43\]\[1\]
*344 RAM\[43\]\[2\]
*345 RAM\[43\]\[3\]
*346 RAM\[43\]\[4\]
*347 RAM\[43\]\[5\]
*348 RAM\[43\]\[6\]
*349 RAM\[43\]\[7\]
*350 RAM\[44\]\[0\]
*351 RAM\[44\]\[1\]
*352 RAM\[44\]\[2\]
*353 RAM\[44\]\[3\]
*354 RAM\[44\]\[4\]
*355 RAM\[44\]\[5\]
*356 RAM\[44\]\[6\]
*357 RAM\[44\]\[7\]
*358 RAM\[45\]\[0\]
*359 RAM\[45\]\[1\]
*360 RAM\[45\]\[2\]
*361 RAM\[45\]\[3\]
*362 RAM\[45\]\[4\]
*363 RAM\[45\]\[5\]
*364 RAM\[45\]\[6\]
*365 RAM\[45\]\[7\]
*366 RAM\[46\]\[0\]
*367 RAM\[46\]\[1\]
*368 RAM\[46\]\[2\]
*369 RAM\[46\]\[3\]
*370 RAM\[46\]\[4\]
*371 RAM\[46\]\[5\]
*372 RAM\[46\]\[6\]
*373 RAM\[46\]\[7\]
*374 RAM\[47\]\[0\]
*375 RAM\[47\]\[1\]
*376 RAM\[47\]\[2\]
*377 RAM\[47\]\[3\]
*378 RAM\[47\]\[4\]
*379 RAM\[47\]\[5\]
*380 RAM\[47\]\[6\]
*381 RAM\[47\]\[7\]
*382 RAM\[48\]\[0\]
*383 RAM\[48\]\[1\]
*384 RAM\[48\]\[2\]
*385 RAM\[48\]\[3\]
*386 RAM\[48\]\[4\]
*387 RAM\[48\]\[5\]
*388 RAM\[48\]\[6\]
*389 RAM\[48\]\[7\]
*390 RAM\[49\]\[0\]
*391 RAM\[49\]\[1\]
*392 RAM\[49\]\[2\]
*393 RAM\[49\]\[3\]
*394 RAM\[49\]\[4\]
*395 RAM\[49\]\[5\]
*396 RAM\[49\]\[6\]
*397 RAM\[49\]\[7\]
*398 RAM\[4\]\[0\]
*399 RAM\[4\]\[1\]
*400 RAM\[4\]\[2\]
*401 RAM\[4\]\[3\]
*402 RAM\[4\]\[4\]
*403 RAM\[4\]\[5\]
*404 RAM\[4\]\[6\]
*405 RAM\[4\]\[7\]
*406 RAM\[50\]\[0\]
*407 RAM\[50\]\[1\]
*408 RAM\[50\]\[2\]
*409 RAM\[50\]\[3\]
*410 RAM\[50\]\[4\]
*411 RAM\[50\]\[5\]
*412 RAM\[50\]\[6\]
*413 RAM\[50\]\[7\]
*414 RAM\[51\]\[0\]
*415 RAM\[51\]\[1\]
*416 RAM\[51\]\[2\]
*417 RAM\[51\]\[3\]
*418 RAM\[51\]\[4\]
*419 RAM\[51\]\[5\]
*420 RAM\[51\]\[6\]
*421 RAM\[51\]\[7\]
*422 RAM\[52\]\[0\]
*423 RAM\[52\]\[1\]
*424 RAM\[52\]\[2\]
*425 RAM\[52\]\[3\]
*426 RAM\[52\]\[4\]
*427 RAM\[52\]\[5\]
*428 RAM\[52\]\[6\]
*429 RAM\[52\]\[7\]
*430 RAM\[53\]\[0\]
*431 RAM\[53\]\[1\]
*432 RAM\[53\]\[2\]
*433 RAM\[53\]\[3\]
*434 RAM\[53\]\[4\]
*435 RAM\[53\]\[5\]
*436 RAM\[53\]\[6\]
*437 RAM\[53\]\[7\]
*438 RAM\[54\]\[0\]
*439 RAM\[54\]\[1\]
*440 RAM\[54\]\[2\]
*441 RAM\[54\]\[3\]
*442 RAM\[54\]\[4\]
*443 RAM\[54\]\[5\]
*444 RAM\[54\]\[6\]
*445 RAM\[54\]\[7\]
*446 RAM\[55\]\[0\]
*447 RAM\[55\]\[1\]
*448 RAM\[55\]\[2\]
*449 RAM\[55\]\[3\]
*450 RAM\[55\]\[4\]
*451 RAM\[55\]\[5\]
*452 RAM\[55\]\[6\]
*453 RAM\[55\]\[7\]
*454 RAM\[56\]\[0\]
*455 RAM\[56\]\[1\]
*456 RAM\[56\]\[2\]
*457 RAM\[56\]\[3\]
*458 RAM\[56\]\[4\]
*459 RAM\[56\]\[5\]
*460 RAM\[56\]\[6\]
*461 RAM\[56\]\[7\]
*462 RAM\[57\]\[0\]
*463 RAM\[57\]\[1\]
*464 RAM\[57\]\[2\]
*465 RAM\[57\]\[3\]
*466 RAM\[57\]\[4\]
*467 RAM\[57\]\[5\]
*468 RAM\[57\]\[6\]
*469 RAM\[57\]\[7\]
*470 RAM\[58\]\[0\]
*471 RAM\[58\]\[1\]
*472 RAM\[58\]\[2\]
*473 RAM\[58\]\[3\]
*474 RAM\[58\]\[4\]
*475 RAM\[58\]\[5\]
*476 RAM\[58\]\[6\]
*477 RAM\[58\]\[7\]
*478 RAM\[59\]\[0\]
*479 RAM\[59\]\[1\]
*480 RAM\[59\]\[2\]
*481 RAM\[59\]\[3\]
*482 RAM\[59\]\[4\]
*483 RAM\[59\]\[5\]
*484 RAM\[59\]\[6\]
*485 RAM\[59\]\[7\]
*486 RAM\[5\]\[0\]
*487 RAM\[5\]\[1\]
*488 RAM\[5\]\[2\]
*489 RAM\[5\]\[3\]
*490 RAM\[5\]\[4\]
*491 RAM\[5\]\[5\]
*492 RAM\[5\]\[6\]
*493 RAM\[5\]\[7\]
*494 RAM\[60\]\[0\]
*495 RAM\[60\]\[1\]
*496 RAM\[60\]\[2\]
*497 RAM\[60\]\[3\]
*498 RAM\[60\]\[4\]
*499 RAM\[60\]\[5\]
*500 RAM\[60\]\[6\]
*501 RAM\[60\]\[7\]
*502 RAM\[61\]\[0\]
*503 RAM\[61\]\[1\]
*504 RAM\[61\]\[2\]
*505 RAM\[61\]\[3\]
*506 RAM\[61\]\[4\]
*507 RAM\[61\]\[5\]
*508 RAM\[61\]\[6\]
*509 RAM\[61\]\[7\]
*510 RAM\[62\]\[0\]
*511 RAM\[62\]\[1\]
*512 RAM\[62\]\[2\]
*513 RAM\[62\]\[3\]
*514 RAM\[62\]\[4\]
*515 RAM\[62\]\[5\]
*516 RAM\[62\]\[6\]
*517 RAM\[62\]\[7\]
*518 RAM\[63\]\[0\]
*519 RAM\[63\]\[1\]
*520 RAM\[63\]\[2\]
*521 RAM\[63\]\[3\]
*522 RAM\[63\]\[4\]
*523 RAM\[63\]\[5\]
*524 RAM\[63\]\[6\]
*525 RAM\[63\]\[7\]
*526 RAM\[6\]\[0\]
*527 RAM\[6\]\[1\]
*528 RAM\[6\]\[2\]
*529 RAM\[6\]\[3\]
*530 RAM\[6\]\[4\]
*531 RAM\[6\]\[5\]
*532 RAM\[6\]\[6\]
*533 RAM\[6\]\[7\]
*534 RAM\[7\]\[0\]
*535 RAM\[7\]\[1\]
*536 RAM\[7\]\[2\]
*537 RAM\[7\]\[3\]
*538 RAM\[7\]\[4\]
*539 RAM\[7\]\[5\]
*540 RAM\[7\]\[6\]
*541 RAM\[7\]\[7\]
*542 RAM\[8\]\[0\]
*543 RAM\[8\]\[1\]
*544 RAM\[8\]\[2\]
*545 RAM\[8\]\[3\]
*546 RAM\[8\]\[4\]
*547 RAM\[8\]\[5\]
*548 RAM\[8\]\[6\]
*549 RAM\[8\]\[7\]
*550 RAM\[9\]\[0\]
*551 RAM\[9\]\[1\]
*552 RAM\[9\]\[2\]
*553 RAM\[9\]\[3\]
*554 RAM\[9\]\[4\]
*555 RAM\[9\]\[5\]
*556 RAM\[9\]\[6\]
*557 RAM\[9\]\[7\]
*558 _0000_
*559 _0001_
*560 _0002_
*561 _0003_
*562 _0004_
*563 _0006_
*564 _0007_
*565 _0008_
*566 _0009_
*567 _0010_
*568 _0011_
*569 _0012_
*570 _0013_
*571 _0014_
*572 _0015_
*573 _0016_
*574 _0017_
*575 _0018_
*576 _0019_
*577 _0020_
*578 _0021_
*579 _0022_
*580 _0023_
*581 _0024_
*582 _0025_
*583 _0026_
*584 _0027_
*585 _0028_
*586 _0029_
*587 _0030_
*588 _0031_
*589 _0032_
*590 _0033_
*591 _0034_
*592 _0035_
*593 _0036_
*594 _0037_
*595 _0038_
*596 _0039_
*597 _0040_
*598 _0041_
*599 _0042_
*600 _0043_
*601 _0044_
*602 _0045_
*603 _0046_
*604 _0047_
*605 _0048_
*606 _0049_
*607 _0050_
*608 _0051_
*609 _0052_
*610 _0053_
*611 _0054_
*612 _0055_
*613 _0056_
*614 _0057_
*615 _0058_
*616 _0059_
*617 _0060_
*618 _0061_
*619 _0062_
*620 _0063_
*621 _0064_
*622 _0065_
*623 _0066_
*624 _0067_
*625 _0068_
*626 _0069_
*627 _0070_
*628 _0071_
*629 _0072_
*630 _0073_
*631 _0074_
*632 _0075_
*633 _0076_
*634 _0077_
*635 _0078_
*636 _0079_
*637 _0080_
*638 _0081_
*639 _0082_
*640 _0083_
*641 _0084_
*642 _0085_
*643 _0086_
*644 _0087_
*645 _0088_
*646 _0089_
*647 _0090_
*648 _0091_
*649 _0092_
*650 _0093_
*651 _0094_
*652 _0095_
*653 _0096_
*654 _0097_
*655 _0098_
*656 _0099_
*657 _0100_
*658 _0101_
*659 _0102_
*660 _0103_
*661 _0104_
*662 _0105_
*663 _0106_
*664 _0107_
*665 _0108_
*666 _0109_
*667 _0110_
*668 _0111_
*669 _0112_
*670 _0113_
*671 _0114_
*672 _0115_
*673 _0116_
*674 _0117_
*675 _0118_
*676 _0119_
*677 _0120_
*678 _0121_
*679 _0122_
*680 _0123_
*681 _0124_
*682 _0125_
*683 _0126_
*684 _0127_
*685 _0128_
*686 _0129_
*687 _0130_
*688 _0131_
*689 _0132_
*690 _0133_
*691 _0134_
*692 _0135_
*693 _0136_
*694 _0137_
*695 _0138_
*696 _0139_
*697 _0140_
*698 _0141_
*699 _0142_
*700 _0143_
*701 _0144_
*702 _0145_
*703 _0146_
*704 _0147_
*705 _0148_
*706 _0149_
*707 _0150_
*708 _0151_
*709 _0152_
*710 _0153_
*711 _0154_
*712 _0155_
*713 _0156_
*714 _0157_
*715 _0158_
*716 _0159_
*717 _0160_
*718 _0161_
*719 _0162_
*720 _0163_
*721 _0164_
*722 _0165_
*723 _0166_
*724 _0167_
*725 _0168_
*726 _0169_
*727 _0170_
*728 _0171_
*729 _0172_
*730 _0173_
*731 _0174_
*732 _0175_
*733 _0176_
*734 _0177_
*735 _0178_
*736 _0179_
*737 _0180_
*738 _0181_
*739 _0182_
*740 _0183_
*741 _0184_
*742 _0185_
*743 _0186_
*744 _0187_
*745 _0188_
*746 _0189_
*747 _0190_
*748 _0191_
*749 _0192_
*750 _0193_
*751 _0194_
*752 _0195_
*753 _0196_
*754 _0197_
*755 _0198_
*756 _0199_
*757 _0200_
*758 _0201_
*759 _0202_
*760 _0203_
*761 _0204_
*762 _0205_
*763 _0206_
*764 _0207_
*765 _0208_
*766 _0209_
*767 _0210_
*768 _0211_
*769 _0212_
*770 _0213_
*771 _0214_
*772 _0215_
*773 _0216_
*774 _0217_
*775 _0218_
*776 _0219_
*777 _0220_
*778 _0221_
*779 _0222_
*780 _0223_
*781 _0224_
*782 _0225_
*783 _0226_
*784 _0227_
*785 _0228_
*786 _0229_
*787 _0230_
*788 _0231_
*789 _0232_
*790 _0233_
*791 _0234_
*792 _0235_
*793 _0236_
*794 _0237_
*795 _0238_
*796 _0239_
*797 _0240_
*798 _0241_
*799 _0242_
*800 _0243_
*801 _0244_
*802 _0245_
*803 _0246_
*804 _0247_
*805 _0248_
*806 _0249_
*807 _0250_
*808 _0251_
*809 _0252_
*810 _0253_
*811 _0254_
*812 _0255_
*813 _0256_
*814 _0257_
*815 _0258_
*816 _0259_
*817 _0260_
*818 _0261_
*819 _0262_
*820 _0263_
*821 _0264_
*822 _0265_
*823 _0266_
*824 _0267_
*825 _0268_
*826 _0269_
*827 _0270_
*828 _0271_
*829 _0272_
*830 _0273_
*831 _0274_
*832 _0275_
*833 _0276_
*834 _0277_
*835 _0278_
*836 _0279_
*837 _0280_
*838 _0281_
*839 _0282_
*840 _0283_
*841 _0284_
*842 _0285_
*843 _0286_
*844 _0287_
*845 _0288_
*846 _0289_
*847 _0290_
*848 _0291_
*849 _0292_
*850 _0293_
*851 _0294_
*852 _0295_
*853 _0296_
*854 _0297_
*855 _0298_
*856 _0299_
*857 _0300_
*858 _0301_
*859 _0302_
*860 _0303_
*861 _0304_
*862 _0305_
*863 _0306_
*864 _0307_
*865 _0308_
*866 _0309_
*867 _0310_
*868 _0311_
*869 _0312_
*870 _0313_
*871 _0314_
*872 _0315_
*873 _0316_
*874 _0317_
*875 _0318_
*876 _0319_
*877 _0320_
*878 _0321_
*879 _0322_
*880 _0323_
*881 _0324_
*882 _0325_
*883 _0326_
*884 _0327_
*885 _0328_
*886 _0329_
*887 _0330_
*888 _0331_
*889 _0332_
*890 _0333_
*891 _0334_
*892 _0335_
*893 _0336_
*894 _0337_
*895 _0338_
*896 _0339_
*897 _0340_
*898 _0341_
*899 _0342_
*900 _0343_
*901 _0344_
*902 _0345_
*903 _0346_
*904 _0347_
*905 _0348_
*906 _0349_
*907 _0350_
*908 _0351_
*909 _0352_
*910 _0353_
*911 _0354_
*912 _0355_
*913 _0356_
*914 _0357_
*915 _0358_
*916 _0359_
*917 _0360_
*918 _0361_
*919 _0362_
*920 _0363_
*921 _0364_
*922 _0365_
*923 _0366_
*924 _0367_
*925 _0368_
*926 _0369_
*927 _0370_
*928 _0371_
*929 _0372_
*930 _0373_
*931 _0374_
*932 _0375_
*933 _0376_
*934 _0377_
*935 _0378_
*936 _0379_
*937 _0380_
*938 _0381_
*939 _0382_
*940 _0383_
*941 _0384_
*942 _0385_
*943 _0386_
*944 _0387_
*945 _0388_
*946 _0389_
*947 _0390_
*948 _0391_
*949 _0392_
*950 _0393_
*951 _0394_
*952 _0395_
*953 _0396_
*954 _0397_
*955 _0398_
*956 _0399_
*957 _0400_
*958 _0401_
*959 _0402_
*960 _0403_
*961 _0404_
*962 _0405_
*963 _0406_
*964 _0407_
*965 _0408_
*966 _0409_
*967 _0410_
*968 _0411_
*969 _0412_
*970 _0413_
*971 _0414_
*972 _0415_
*973 _0416_
*974 _0417_
*975 _0418_
*976 _0419_
*977 _0420_
*978 _0421_
*979 _0422_
*980 _0423_
*981 _0424_
*982 _0425_
*983 _0426_
*984 _0427_
*985 _0428_
*986 _0429_
*987 _0430_
*988 _0431_
*989 _0432_
*990 _0433_
*991 _0434_
*992 _0435_
*993 _0436_
*994 _0437_
*995 _0438_
*996 _0439_
*997 _0440_
*998 _0441_
*999 _0442_
*1000 _0443_
*1001 _0444_
*1002 _0445_
*1003 _0446_
*1004 _0447_
*1005 _0448_
*1006 _0449_
*1007 _0450_
*1008 _0451_
*1009 _0452_
*1010 _0453_
*1011 _0454_
*1012 _0455_
*1013 addr_read\[0\]
*1014 addr_read\[1\]
*1015 addr_read\[2\]
*1016 addr_read\[3\]
*1017 addr_write\[0\]
*1018 addr_write\[1\]
*1019 addr_write\[2\]
*1020 addr_write\[3\]
*1021 addr_write\[4\]
*1022 addr_write\[5\]
*1023 clknet_0_clk
*1024 clknet_1_0__leaf_clk
*1025 clknet_1_1__leaf_clk
*1026 combined_out\[0\]
*1027 combined_out\[1\]
*1028 combined_out\[2\]
*1029 combined_out\[3\]
*1030 combined_out\[4\]
*1031 combined_out\[5\]
*1032 combined_out\[6\]
*1033 combined_out\[7\]
*1034 data_to_write\[0\]
*1035 data_to_write\[1\]
*1036 data_to_write\[2\]
*1037 data_to_write\[3\]
*1038 data_to_write\[4\]
*1039 data_to_write\[5\]
*1040 data_to_write\[6\]
*1041 data_to_write\[7\]
*1042 genblk1\[0\]\.sel_byte
*1043 genblk1\[0\]\.wr_en_this_byte
*1044 genblk1\[10\]\.sel_byte
*1045 genblk1\[10\]\.wr_en_this_byte
*1046 genblk1\[11\]\.sel_byte
*1047 genblk1\[11\]\.wr_en_this_byte
*1048 genblk1\[12\]\.sel_byte
*1049 genblk1\[12\]\.wr_en_this_byte
*1050 genblk1\[13\]\.sel_byte
*1051 genblk1\[13\]\.wr_en_this_byte
*1052 genblk1\[14\]\.sel_byte
*1053 genblk1\[14\]\.wr_en_this_byte
*1054 genblk1\[15\]\.sel_byte
*1055 genblk1\[15\]\.wr_en_this_byte
*1056 genblk1\[16\]\.sel_byte
*1057 genblk1\[16\]\.wr_en_this_byte
*1058 genblk1\[17\]\.sel_byte
*1059 genblk1\[17\]\.wr_en_this_byte
*1060 genblk1\[18\]\.sel_byte
*1061 genblk1\[18\]\.wr_en_this_byte
*1062 genblk1\[19\]\.sel_byte
*1063 genblk1\[19\]\.wr_en_this_byte
*1064 genblk1\[1\]\.sel_byte
*1065 genblk1\[1\]\.wr_en_this_byte
*1066 genblk1\[20\]\.sel_byte
*1067 genblk1\[20\]\.wr_en_this_byte
*1068 genblk1\[21\]\.sel_byte
*1069 genblk1\[21\]\.wr_en_this_byte
*1070 genblk1\[22\]\.sel_byte
*1071 genblk1\[22\]\.wr_en_this_byte
*1072 genblk1\[23\]\.sel_byte
*1073 genblk1\[23\]\.wr_en_this_byte
*1074 genblk1\[24\]\.sel_byte
*1075 genblk1\[24\]\.wr_en_this_byte
*1076 genblk1\[25\]\.sel_byte
*1077 genblk1\[25\]\.wr_en_this_byte
*1078 genblk1\[26\]\.sel_byte
*1079 genblk1\[26\]\.wr_en_this_byte
*1080 genblk1\[27\]\.sel_byte
*1081 genblk1\[27\]\.wr_en_this_byte
*1082 genblk1\[28\]\.sel_byte
*1083 genblk1\[28\]\.wr_en_this_byte
*1084 genblk1\[29\]\.sel_byte
*1085 genblk1\[29\]\.wr_en_this_byte
*1086 genblk1\[2\]\.sel_byte
*1087 genblk1\[2\]\.wr_en_this_byte
*1088 genblk1\[30\]\.sel_byte
*1089 genblk1\[30\]\.wr_en_this_byte
*1090 genblk1\[31\]\.sel_byte
*1091 genblk1\[31\]\.wr_en_this_byte
*1092 genblk1\[32\]\.sel_byte
*1093 genblk1\[32\]\.wr_en_this_byte
*1094 genblk1\[33\]\.sel_byte
*1095 genblk1\[33\]\.wr_en_this_byte
*1096 genblk1\[34\]\.sel_byte
*1097 genblk1\[34\]\.wr_en_this_byte
*1098 genblk1\[35\]\.sel_byte
*1099 genblk1\[35\]\.wr_en_this_byte
*1100 genblk1\[36\]\.sel_byte
*1101 genblk1\[36\]\.wr_en_this_byte
*1102 genblk1\[37\]\.sel_byte
*1103 genblk1\[37\]\.wr_en_this_byte
*1104 genblk1\[38\]\.sel_byte
*1105 genblk1\[38\]\.wr_en_this_byte
*1106 genblk1\[39\]\.sel_byte
*1107 genblk1\[39\]\.wr_en_this_byte
*1108 genblk1\[3\]\.sel_byte
*1109 genblk1\[3\]\.wr_en_this_byte
*1110 genblk1\[40\]\.sel_byte
*1111 genblk1\[40\]\.wr_en_this_byte
*1112 genblk1\[41\]\.sel_byte
*1113 genblk1\[41\]\.wr_en_this_byte
*1114 genblk1\[42\]\.sel_byte
*1115 genblk1\[42\]\.wr_en_this_byte
*1116 genblk1\[43\]\.sel_byte
*1117 genblk1\[43\]\.wr_en_this_byte
*1118 genblk1\[44\]\.sel_byte
*1119 genblk1\[44\]\.wr_en_this_byte
*1120 genblk1\[45\]\.sel_byte
*1121 genblk1\[45\]\.wr_en_this_byte
*1122 genblk1\[46\]\.sel_byte
*1123 genblk1\[46\]\.wr_en_this_byte
*1124 genblk1\[47\]\.sel_byte
*1125 genblk1\[47\]\.wr_en_this_byte
*1126 genblk1\[48\]\.sel_byte
*1127 genblk1\[48\]\.wr_en_this_byte
*1128 genblk1\[49\]\.sel_byte
*1129 genblk1\[49\]\.wr_en_this_byte
*1130 genblk1\[4\]\.sel_byte
*1131 genblk1\[4\]\.wr_en_this_byte
*1132 genblk1\[50\]\.sel_byte
*1133 genblk1\[50\]\.wr_en_this_byte
*1134 genblk1\[51\]\.sel_byte
*1135 genblk1\[51\]\.wr_en_this_byte
*1136 genblk1\[52\]\.sel_byte
*1137 genblk1\[52\]\.wr_en_this_byte
*1138 genblk1\[53\]\.sel_byte
*1139 genblk1\[53\]\.wr_en_this_byte
*1140 genblk1\[54\]\.sel_byte
*1141 genblk1\[54\]\.wr_en_this_byte
*1142 genblk1\[55\]\.sel_byte
*1143 genblk1\[55\]\.wr_en_this_byte
*1144 genblk1\[56\]\.sel_byte
*1145 genblk1\[56\]\.wr_en_this_byte
*1146 genblk1\[57\]\.sel_byte
*1147 genblk1\[57\]\.wr_en_this_byte
*1148 genblk1\[58\]\.sel_byte
*1149 genblk1\[58\]\.wr_en_this_byte
*1150 genblk1\[59\]\.sel_byte
*1151 genblk1\[59\]\.wr_en_this_byte
*1152 genblk1\[5\]\.sel_byte
*1153 genblk1\[5\]\.wr_en_this_byte
*1154 genblk1\[60\]\.sel_byte
*1155 genblk1\[60\]\.wr_en_this_byte
*1156 genblk1\[61\]\.sel_byte
*1157 genblk1\[61\]\.wr_en_this_byte
*1158 genblk1\[62\]\.sel_byte
*1159 genblk1\[62\]\.wr_en_this_byte
*1160 genblk1\[63\]\.sel_byte
*1161 genblk1\[63\]\.wr_en_this_byte
*1162 genblk1\[6\]\.sel_byte
*1163 genblk1\[6\]\.wr_en_this_byte
*1164 genblk1\[7\]\.sel_byte
*1165 genblk1\[7\]\.wr_en_this_byte
*1166 genblk1\[8\]\.sel_byte
*1167 genblk1\[8\]\.wr_en_this_byte
*1168 genblk1\[9\]\.sel_byte
*1169 genblk1\[9\]\.wr_en_this_byte
*1170 genblk2\[0\]\.partition_sel_n
*1171 genblk2\[0\]\.selected_out\[0\]
*1172 genblk2\[0\]\.selected_out\[1\]
*1173 genblk2\[0\]\.selected_out\[2\]
*1174 genblk2\[0\]\.selected_out\[3\]
*1175 genblk2\[0\]\.selected_out\[4\]
*1176 genblk2\[0\]\.selected_out\[5\]
*1177 genblk2\[0\]\.selected_out\[6\]
*1178 genblk2\[0\]\.selected_out\[7\]
*1179 genblk2\[1\]\.partition_sel_n
*1180 genblk2\[1\]\.selected_out\[0\]
*1181 genblk2\[1\]\.selected_out\[1\]
*1182 genblk2\[1\]\.selected_out\[2\]
*1183 genblk2\[1\]\.selected_out\[3\]
*1184 genblk2\[1\]\.selected_out\[4\]
*1185 genblk2\[1\]\.selected_out\[5\]
*1186 genblk2\[1\]\.selected_out\[6\]
*1187 genblk2\[1\]\.selected_out\[7\]
*1188 genblk2\[2\]\.partition_sel_n
*1189 genblk2\[2\]\.selected_out\[0\]
*1190 genblk2\[2\]\.selected_out\[1\]
*1191 genblk2\[2\]\.selected_out\[2\]
*1192 genblk2\[2\]\.selected_out\[3\]
*1193 genblk2\[2\]\.selected_out\[4\]
*1194 genblk2\[2\]\.selected_out\[5\]
*1195 genblk2\[2\]\.selected_out\[6\]
*1196 genblk2\[2\]\.selected_out\[7\]
*1197 genblk2\[3\]\.partition_sel_n
*1198 genblk2\[3\]\.selected_out\[0\]
*1199 genblk2\[3\]\.selected_out\[1\]
*1200 genblk2\[3\]\.selected_out\[2\]
*1201 genblk2\[3\]\.selected_out\[3\]
*1202 genblk2\[3\]\.selected_out\[4\]
*1203 genblk2\[3\]\.selected_out\[5\]
*1204 genblk2\[3\]\.selected_out\[6\]
*1205 genblk2\[3\]\.selected_out\[7\]
*1206 net1
*1207 net10
*1208 net11
*1209 net112
*1210 net113
*1211 net114
*1212 net115
*1213 net12
*1214 net13
*1215 net14
*1216 net15
*1217 net16
*1218 net17
*1219 net18
*1220 net19
*1221 net2
*1222 net20
*1223 net21
*1224 net22
*1225 net23
*1226 net24
*1227 net25
*1228 net26
*1229 net27
*1230 net28
*1231 net29
*1232 net3
*1233 net30
*1234 net31
*1235 net32
*1236 net33
*1237 net34
*1238 net35
*1239 net36
*1240 net37
*1241 net38
*1242 net39
*1243 net4
*1244 net40
*1245 net41
*1246 net42
*1247 net43
*1248 net44
*1249 net45
*1250 net46
*1251 net47
*1252 net48
*1253 net49
*1254 net5
*1255 net50
*1256 net51
*1257 net52
*1258 net53
*1259 net54
*1260 net55
*1261 net56
*1262 net57
*1263 net58
*1264 net59
*1265 net6
*1266 net60
*1267 net61
*1268 net62
*1269 net63
*1270 net64
*1271 net65
*1272 net66
*1273 net67
*1274 net68
*1275 net69
*1276 net7
*1277 net70
*1278 net71
*1279 net72
*1280 net73
*1281 net74
*1282 net75
*1283 net76
*1284 net77
*1285 net78
*1286 net79
*1287 net8
*1288 net80
*1289 net81
*1290 net82
*1291 net83
*1292 net84
*1293 net85
*1294 net86
*1295 net87
*1296 net88
*1297 net89
*1298 net9
*1299 net90
*1300 net91
*1301 net92
*1302 net93
*1303 net94
*1304 net95
*1305 wr_en
*1306 wr_en_next
*1307 wr_en_ok
*1308 wr_en_valid
*1309 ANTENNA_1
*1310 ANTENNA_2
*1311 ANTENNA_3
*1312 ANTENNA_4
*1313 ANTENNA_5
*1314 ANTENNA_6
*1315 ANTENNA_7
*1316 ANTENNA_8
*1317 ANTENNA_9
*1318 FILLER_0_0_110
*1319 FILLER_0_0_113
*1320 FILLER_0_0_138
*1321 FILLER_0_0_153
*1322 FILLER_0_0_195
*1323 FILLER_0_0_197
*1324 FILLER_0_0_210
*1325 FILLER_0_0_214
*1326 FILLER_0_0_223
*1327 FILLER_0_0_225
*1328 FILLER_0_0_241
*1329 FILLER_0_0_250
*1330 FILLER_0_0_275
*1331 FILLER_0_0_279
*1332 FILLER_0_0_287
*1333 FILLER_0_0_29
*1334 FILLER_0_0_3
*1335 FILLER_0_0_303
*1336 FILLER_0_0_307
*1337 FILLER_0_0_309
*1338 FILLER_0_0_320
*1339 FILLER_0_0_332
*1340 FILLER_0_0_57
*1341 FILLER_0_0_83
*1342 FILLER_0_10_137
*1343 FILLER_0_10_141
*1344 FILLER_0_10_149
*1345 FILLER_0_10_165
*1346 FILLER_0_10_180
*1347 FILLER_0_10_189
*1348 FILLER_0_10_195
*1349 FILLER_0_10_216
*1350 FILLER_0_10_229
*1351 FILLER_0_10_26
*1352 FILLER_0_10_268
*1353 FILLER_0_10_3
*1354 FILLER_0_10_305
*1355 FILLER_0_10_309
*1356 FILLER_0_10_333
*1357 FILLER_0_10_68
*1358 FILLER_0_10_85
*1359 FILLER_0_10_97
*1360 FILLER_0_11_169
*1361 FILLER_0_11_190
*1362 FILLER_0_11_198
*1363 FILLER_0_11_218
*1364 FILLER_0_11_237
*1365 FILLER_0_11_277
*1366 FILLER_0_11_293
*1367 FILLER_0_11_315
*1368 FILLER_0_11_334
*1369 FILLER_0_11_41
*1370 FILLER_0_11_55
*1371 FILLER_0_12_123
*1372 FILLER_0_12_153
*1373 FILLER_0_12_174
*1374 FILLER_0_12_18
*1375 FILLER_0_12_195
*1376 FILLER_0_12_233
*1377 FILLER_0_12_251
*1378 FILLER_0_12_27
*1379 FILLER_0_12_275
*1380 FILLER_0_12_290
*1381 FILLER_0_12_294
*1382 FILLER_0_12_3
*1383 FILLER_0_12_307
*1384 FILLER_0_12_334
*1385 FILLER_0_12_92
*1386 FILLER_0_13_135
*1387 FILLER_0_13_165
*1388 FILLER_0_13_181
*1389 FILLER_0_13_205
*1390 FILLER_0_13_220
*1391 FILLER_0_13_265
*1392 FILLER_0_13_332
*1393 FILLER_0_13_43
*1394 FILLER_0_14_115
*1395 FILLER_0_14_141
*1396 FILLER_0_14_19
*1397 FILLER_0_14_229
*1398 FILLER_0_14_249
*1399 FILLER_0_14_265
*1400 FILLER_0_14_280
*1401 FILLER_0_14_29
*1402 FILLER_0_14_3
*1403 FILLER_0_14_307
*1404 FILLER_0_14_333
*1405 FILLER_0_14_92
*1406 FILLER_0_15_111
*1407 FILLER_0_15_113
*1408 FILLER_0_15_135
*1409 FILLER_0_15_139
*1410 FILLER_0_15_156
*1411 FILLER_0_15_160
*1412 FILLER_0_15_166
*1413 FILLER_0_15_181
*1414 FILLER_0_15_205
*1415 FILLER_0_15_223
*1416 FILLER_0_15_263
*1417 FILLER_0_15_277
*1418 FILLER_0_15_281
*1419 FILLER_0_15_3
*1420 FILLER_0_15_306
*1421 FILLER_0_15_55
*1422 FILLER_0_15_61
*1423 FILLER_0_15_65
*1424 FILLER_0_16_115
*1425 FILLER_0_16_127
*1426 FILLER_0_16_144
*1427 FILLER_0_16_167
*1428 FILLER_0_16_174
*1429 FILLER_0_16_194
*1430 FILLER_0_16_241
*1431 FILLER_0_16_260
*1432 FILLER_0_16_3
*1433 FILLER_0_16_305
*1434 FILLER_0_16_333
*1435 FILLER_0_16_65
*1436 FILLER_0_16_93
*1437 FILLER_0_17_108
*1438 FILLER_0_17_113
*1439 FILLER_0_17_143
*1440 FILLER_0_17_169
*1441 FILLER_0_17_186
*1442 FILLER_0_17_195
*1443 FILLER_0_17_256
*1444 FILLER_0_17_3
*1445 FILLER_0_17_314
*1446 FILLER_0_17_57
*1447 FILLER_0_18_116
*1448 FILLER_0_18_131
*1449 FILLER_0_18_153
*1450 FILLER_0_18_187
*1451 FILLER_0_18_195
*1452 FILLER_0_18_3
*1453 FILLER_0_18_334
*1454 FILLER_0_18_39
*1455 FILLER_0_19_113
*1456 FILLER_0_19_169
*1457 FILLER_0_19_220
*1458 FILLER_0_19_251
*1459 FILLER_0_19_261
*1460 FILLER_0_19_274
*1461 FILLER_0_19_281
*1462 FILLER_0_19_299
*1463 FILLER_0_19_3
*1464 FILLER_0_19_334
*1465 FILLER_0_19_44
*1466 FILLER_0_19_64
*1467 FILLER_0_1_113
*1468 FILLER_0_1_141
*1469 FILLER_0_1_155
*1470 FILLER_0_1_169
*1471 FILLER_0_1_184
*1472 FILLER_0_1_209
*1473 FILLER_0_1_223
*1474 FILLER_0_1_279
*1475 FILLER_0_1_286
*1476 FILLER_0_1_3
*1477 FILLER_0_1_305
*1478 FILLER_0_1_329
*1479 FILLER_0_1_81
*1480 FILLER_0_1_97
*1481 FILLER_0_20_110
*1482 FILLER_0_20_124
*1483 FILLER_0_20_131
*1484 FILLER_0_20_138
*1485 FILLER_0_20_141
*1486 FILLER_0_20_145
*1487 FILLER_0_20_173
*1488 FILLER_0_20_194
*1489 FILLER_0_20_221
*1490 FILLER_0_20_236
*1491 FILLER_0_20_3
*1492 FILLER_0_20_307
*1493 FILLER_0_20_309
*1494 FILLER_0_20_73
*1495 FILLER_0_20_80
*1496 FILLER_0_20_97
*1497 FILLER_0_21_110
*1498 FILLER_0_21_119
*1499 FILLER_0_21_154
*1500 FILLER_0_21_169
*1501 FILLER_0_21_177
*1502 FILLER_0_21_192
*1503 FILLER_0_21_207
*1504 FILLER_0_21_214
*1505 FILLER_0_21_231
*1506 FILLER_0_21_241
*1507 FILLER_0_21_26
*1508 FILLER_0_21_260
*1509 FILLER_0_21_264
*1510 FILLER_0_21_278
*1511 FILLER_0_21_297
*1512 FILLER_0_21_3
*1513 FILLER_0_21_80
*1514 FILLER_0_22_100
*1515 FILLER_0_22_132
*1516 FILLER_0_22_155
*1517 FILLER_0_22_177
*1518 FILLER_0_22_183
*1519 FILLER_0_22_200
*1520 FILLER_0_22_214
*1521 FILLER_0_22_221
*1522 FILLER_0_22_23
*1523 FILLER_0_22_233
*1524 FILLER_0_22_239
*1525 FILLER_0_22_253
*1526 FILLER_0_22_27
*1527 FILLER_0_22_281
*1528 FILLER_0_22_3
*1529 FILLER_0_22_307
*1530 FILLER_0_22_333
*1531 FILLER_0_23_111
*1532 FILLER_0_23_119
*1533 FILLER_0_23_138
*1534 FILLER_0_23_18
*1535 FILLER_0_23_191
*1536 FILLER_0_23_222
*1537 FILLER_0_23_250
*1538 FILLER_0_23_27
*1539 FILLER_0_23_293
*1540 FILLER_0_23_3
*1541 FILLER_0_23_334
*1542 FILLER_0_23_41
*1543 FILLER_0_23_57
*1544 FILLER_0_23_65
*1545 FILLER_0_23_78
*1546 FILLER_0_24_112
*1547 FILLER_0_24_141
*1548 FILLER_0_24_162
*1549 FILLER_0_24_195
*1550 FILLER_0_24_200
*1551 FILLER_0_24_204
*1552 FILLER_0_24_212
*1553 FILLER_0_24_218
*1554 FILLER_0_24_226
*1555 FILLER_0_24_237
*1556 FILLER_0_24_253
*1557 FILLER_0_24_27
*1558 FILLER_0_24_275
*1559 FILLER_0_24_29
*1560 FILLER_0_24_3
*1561 FILLER_0_24_321
*1562 FILLER_0_24_57
*1563 FILLER_0_24_7
*1564 FILLER_0_24_82
*1565 FILLER_0_24_85
*1566 FILLER_0_25_108
*1567 FILLER_0_25_149
*1568 FILLER_0_25_155
*1569 FILLER_0_25_175
*1570 FILLER_0_25_191
*1571 FILLER_0_25_21
*1572 FILLER_0_25_217
*1573 FILLER_0_25_223
*1574 FILLER_0_25_225
*1575 FILLER_0_25_229
*1576 FILLER_0_25_236
*1577 FILLER_0_25_263
*1578 FILLER_0_25_281
*1579 FILLER_0_25_297
*1580 FILLER_0_25_3
*1581 FILLER_0_25_333
*1582 FILLER_0_25_69
*1583 FILLER_0_26_105
*1584 FILLER_0_26_111
*1585 FILLER_0_26_139
*1586 FILLER_0_26_160
*1587 FILLER_0_26_18
*1588 FILLER_0_26_189