*SPEF "ieee 1481-1999"
*DESIGN "tt_um_gabejessil_timer"
*DATE "11:11:11 Fri 11 11, 1111"
*VENDOR "OpenRCX"
*PROGRAM "Parallel Extraction"
*VERSION "1.0"
*DESIGN_FLOW "NAME_SCOPE LOCAL" "PIN_CAP NONE"
*DIVIDER /
*DELIMITER :
*BUS_DELIMITER []
*T_UNIT 1 NS
*C_UNIT 1 PF
*R_UNIT 1 OHM
*L_UNIT 1 HENRY

*NAME_MAP
*3 clk
*4 ena
*5 rst_n
*6 ui_in[0]
*7 ui_in[1]
*8 ui_in[2]
*9 ui_in[3]
*10 ui_in[4]
*11 ui_in[5]
*12 ui_in[6]
*13 ui_in[7]
*14 uio_in[0]
*15 uio_in[1]
*16 uio_in[2]
*17 uio_in[3]
*18 uio_in[4]
*19 uio_in[5]
*20 uio_in[6]
*21 uio_in[7]
*22 net12
*23 net13
*24 net14
*25 net15
*26 net16
*27 net17
*28 net18
*29 net19
*30 net20
*31 net21
*32 net22
*33 net23
*34 net24
*35 net25
*36 net26
*37 net27
*38 uo_out[0]
*39 uo_out[1]
*40 uo_out[2]
*41 uo_out[3]
*42 uo_out[4]
*43 uo_out[5]
*44 uo_out[6]
*45 uo_out[7]
*46 DEBUG_SIGS_GTKWAVE\.\@0\$slideswitch\[0\]
*47 DEBUG_SIGS_GTKWAVE\.\@0\$slideswitch\[1\]
*48 DEBUG_SIGS_GTKWAVE\.\@0\$slideswitch\[2\]
*49 DEBUG_SIGS_GTKWAVE\.\@0\$slideswitch\[3\]
*50 DEBUG_SIGS_GTKWAVE\.\@0\$slideswitch\[4\]
*51 DEBUG_SIGS_GTKWAVE\.\@0\$slideswitch\[5\]
*52 DEBUG_SIGS_GTKWAVE\.\@0\$slideswitch\[6\]
*53 DEBUG_SIGS_GTKWAVE\.\@0\$slideswitch\[7\]
*54 DEBUG_SIGS_GTKWAVE\.\@0\$sseg_decimal_point_n
*55 DEBUG_SIGS_GTKWAVE\.\@0\$sseg_segment_n\[0\]
*56 DEBUG_SIGS_GTKWAVE\.\@0\$sseg_segment_n\[1\]
*57 DEBUG_SIGS_GTKWAVE\.\@0\$sseg_segment_n\[2\]
*58 DEBUG_SIGS_GTKWAVE\.\@0\$sseg_segment_n\[3\]
*59 DEBUG_SIGS_GTKWAVE\.\@0\$sseg_segment_n\[4\]
*60 DEBUG_SIGS_GTKWAVE\.\@0\$sseg_segment_n\[5\]
*61 DEBUG_SIGS_GTKWAVE\.\@0\$sseg_segment_n\[6\]
*62 DEBUG_SIGS_GTKWAVE\.\/digit\[0\]\.\/leds\[0\]\.\/\/\@0\$viz_lit
*63 DEBUG_SIGS_GTKWAVE\.\/digit\[0\]\.\/leds\[1\]\.\/\/\@0\$viz_lit
*64 DEBUG_SIGS_GTKWAVE\.\/digit\[0\]\.\/leds\[2\]\.\/\/\@0\$viz_lit
*65 DEBUG_SIGS_GTKWAVE\.\/digit\[0\]\.\/leds\[3\]\.\/\/\@0\$viz_lit
*66 DEBUG_SIGS_GTKWAVE\.\/digit\[0\]\.\/leds\[4\]\.\/\/\@0\$viz_lit
*67 DEBUG_SIGS_GTKWAVE\.\/digit\[0\]\.\/leds\[5\]\.\/\/\@0\$viz_lit
*68 DEBUG_SIGS_GTKWAVE\.\/digit\[0\]\.\/leds\[6\]\.\/\/\@0\$viz_lit
*69 DEBUG_SIGS_GTKWAVE\.\/digit\[0\]\.\/leds\[7\]\.\/\/\@0\$viz_lit
*70 DEBUG_SIGS_GTKWAVE\.\/fpga_pins\.\/fpga\.P_time\.\/\/\/\@0\$btn\[0\]
*71 DEBUG_SIGS_GTKWAVE\.\/fpga_pins\.\/fpga\.P_time\.\/\/\/\@0\$btn\[1\]
*72 DEBUG_SIGS_GTKWAVE\.\/fpga_pins\.\/fpga\.P_time\.\/\/\/\@0\$btn\[2\]
*73 DEBUG_SIGS_GTKWAVE\.\/fpga_pins\.\/fpga\.P_time\.\/\/\/\@0\$btn\[3\]
*74 DEBUG_SIGS_GTKWAVE\.\/fpga_pins\.\/fpga\.P_time\.\/\/\/\@0\$clk_disp
*75 DEBUG_SIGS_GTKWAVE\.\/fpga_pins\.\/fpga\.P_time\.\/\/\/\@0\$cnt\[0\]
*76 DEBUG_SIGS_GTKWAVE\.\/fpga_pins\.\/fpga\.P_time\.\/\/\/\@0\$cnt\[10\]
*77 DEBUG_SIGS_GTKWAVE\.\/fpga_pins\.\/fpga\.P_time\.\/\/\/\@0\$cnt\[11\]
*78 DEBUG_SIGS_GTKWAVE\.\/fpga_pins\.\/fpga\.P_time\.\/\/\/\@0\$cnt\[12\]
*79 DEBUG_SIGS_GTKWAVE\.\/fpga_pins\.\/fpga\.P_time\.\/\/\/\@0\$cnt\[13\]
*80 DEBUG_SIGS_GTKWAVE\.\/fpga_pins\.\/fpga\.P_time\.\/\/\/\@0\$cnt\[14\]
*81 DEBUG_SIGS_GTKWAVE\.\/fpga_pins\.\/fpga\.P_time\.\/\/\/\@0\$cnt\[15\]
*82 DEBUG_SIGS_GTKWAVE\.\/fpga_pins\.\/fpga\.P_time\.\/\/\/\@0\$cnt\[16\]
*83 DEBUG_SIGS_GTKWAVE\.\/fpga_pins\.\/fpga\.P_time\.\/\/\/\@0\$cnt\[17\]
*84 DEBUG_SIGS_GTKWAVE\.\/fpga_pins\.\/fpga\.P_time\.\/\/\/\@0\$cnt\[18\]
*85 DEBUG_SIGS_GTKWAVE\.\/fpga_pins\.\/fpga\.P_time\.\/\/\/\@0\$cnt\[19\]
*86 DEBUG_SIGS_GTKWAVE\.\/fpga_pins\.\/fpga\.P_time\.\/\/\/\@0\$cnt\[1\]
*87 DEBUG_SIGS_GTKWAVE\.\/fpga_pins\.\/fpga\.P_time\.\/\/\/\@0\$cnt\[20\]
*88 DEBUG_SIGS_GTKWAVE\.\/fpga_pins\.\/fpga\.P_time\.\/\/\/\@0\$cnt\[2\]
*89 DEBUG_SIGS_GTKWAVE\.\/fpga_pins\.\/fpga\.P_time\.\/\/\/\@0\$cnt\[3\]
*90 DEBUG_SIGS_GTKWAVE\.\/fpga_pins\.\/fpga\.P_time\.\/\/\/\@0\$cnt\[4\]
*91 DEBUG_SIGS_GTKWAVE\.\/fpga_pins\.\/fpga\.P_time\.\/\/\/\@0\$cnt\[5\]
*92 DEBUG_SIGS_GTKWAVE\.\/fpga_pins\.\/fpga\.P_time\.\/\/\/\@0\$cnt\[6\]
*93 DEBUG_SIGS_GTKWAVE\.\/fpga_pins\.\/fpga\.P_time\.\/\/\/\@0\$cnt\[7\]
*94 DEBUG_SIGS_GTKWAVE\.\/fpga_pins\.\/fpga\.P_time\.\/\/\/\@0\$cnt\[8\]
*95 DEBUG_SIGS_GTKWAVE\.\/fpga_pins\.\/fpga\.P_time\.\/\/\/\@0\$cnt\[9\]
*96 DEBUG_SIGS_GTKWAVE\.\/fpga_pins\.\/fpga\.P_time\.\/\/\/\@0\$digit\[0\]
*97 DEBUG_SIGS_GTKWAVE\.\/fpga_pins\.\/fpga\.P_time\.\/\/\/\@0\$digit\[1\]
*98 DEBUG_SIGS_GTKWAVE\.\/fpga_pins\.\/fpga\.P_time\.\/\/\/\@0\$digit\[2\]
*99 DEBUG_SIGS_GTKWAVE\.\/fpga_pins\.\/fpga\.P_time\.\/\/\/\@0\$digit\[3\]
*100 DEBUG_SIGS_GTKWAVE\.\/fpga_pins\.\/fpga\.P_time\.\/\/\/\@0\$hide
*101 DEBUG_SIGS_GTKWAVE\.\/fpga_pins\.\/fpga\.P_time\.\/\/\/\@0\$ones\[0\]
*102 DEBUG_SIGS_GTKWAVE\.\/fpga_pins\.\/fpga\.P_time\.\/\/\/\@0\$ones\[1\]
*103 DEBUG_SIGS_GTKWAVE\.\/fpga_pins\.\/fpga\.P_time\.\/\/\/\@0\$ones\[2\]
*104 DEBUG_SIGS_GTKWAVE\.\/fpga_pins\.\/fpga\.P_time\.\/\/\/\@0\$ones\[3\]
*105 DEBUG_SIGS_GTKWAVE\.\/fpga_pins\.\/fpga\.P_time\.\/\/\/\@0\$p1_ans\[0\]
*106 DEBUG_SIGS_GTKWAVE\.\/fpga_pins\.\/fpga\.P_time\.\/\/\/\@0\$p1_ans\[1\]
*107 DEBUG_SIGS_GTKWAVE\.\/fpga_pins\.\/fpga\.P_time\.\/\/\/\@0\$p1_ans\[2\]
*108 DEBUG_SIGS_GTKWAVE\.\/fpga_pins\.\/fpga\.P_time\.\/\/\/\@0\$p1_ans\[3\]
*109 DEBUG_SIGS_GTKWAVE\.\/fpga_pins\.\/fpga\.P_time\.\/\/\/\@0\$p1_ans\[4\]
*110 DEBUG_SIGS_GTKWAVE\.\/fpga_pins\.\/fpga\.P_time\.\/\/\/\@0\$p1_ans\[5\]
*111 DEBUG_SIGS_GTKWAVE\.\/fpga_pins\.\/fpga\.P_time\.\/\/\/\@0\$p1_ans\[6\]
*112 DEBUG_SIGS_GTKWAVE\.\/fpga_pins\.\/fpga\.P_time\.\/\/\/\@0\$p1_ans\[7\]
*113 DEBUG_SIGS_GTKWAVE\.\/fpga_pins\.\/fpga\.P_time\.\/\/\/\@0\$p1_score\[0\]
*114 DEBUG_SIGS_GTKWAVE\.\/fpga_pins\.\/fpga\.P_time\.\/\/\/\@0\$p1_score\[1\]
*115 DEBUG_SIGS_GTKWAVE\.\/fpga_pins\.\/fpga\.P_time\.\/\/\/\@0\$p1_score\[2\]
*116 DEBUG_SIGS_GTKWAVE\.\/fpga_pins\.\/fpga\.P_time\.\/\/\/\@0\$p1_score\[3\]
*117 DEBUG_SIGS_GTKWAVE\.\/fpga_pins\.\/fpga\.P_time\.\/\/\/\@0\$p1_score\[4\]
*118 DEBUG_SIGS_GTKWAVE\.\/fpga_pins\.\/fpga\.P_time\.\/\/\/\@0\$p1_score\[5\]
*119 DEBUG_SIGS_GTKWAVE\.\/fpga_pins\.\/fpga\.P_time\.\/\/\/\@0\$p1_score\[6\]
*120 DEBUG_SIGS_GTKWAVE\.\/fpga_pins\.\/fpga\.P_time\.\/\/\/\@0\$p1_score\[7\]
*121 DEBUG_SIGS_GTKWAVE\.\/fpga_pins\.\/fpga\.P_time\.\/\/\/\@0\$p1_sub
*122 DEBUG_SIGS_GTKWAVE\.\/fpga_pins\.\/fpga\.P_time\.\/\/\/\@0\$p2_ans\[0\]
*123 DEBUG_SIGS_GTKWAVE\.\/fpga_pins\.\/fpga\.P_time\.\/\/\/\@0\$p2_ans\[1\]
*124 DEBUG_SIGS_GTKWAVE\.\/fpga_pins\.\/fpga\.P_time\.\/\/\/\@0\$p2_ans\[2\]
*125 DEBUG_SIGS_GTKWAVE\.\/fpga_pins\.\/fpga\.P_time\.\/\/\/\@0\$p2_ans\[3\]
*126 DEBUG_SIGS_GTKWAVE\.\/fpga_pins\.\/fpga\.P_time\.\/\/\/\@0\$p2_ans\[4\]
*127 DEBUG_SIGS_GTKWAVE\.\/fpga_pins\.\/fpga\.P_time\.\/\/\/\@0\$p2_ans\[5\]
*128 DEBUG_SIGS_GTKWAVE\.\/fpga_pins\.\/fpga\.P_time\.\/\/\/\@0\$p2_ans\[6\]
*129 DEBUG_SIGS_GTKWAVE\.\/fpga_pins\.\/fpga\.P_time\.\/\/\/\@0\$p2_ans\[7\]
*130 DEBUG_SIGS_GTKWAVE\.\/fpga_pins\.\/fpga\.P_time\.\/\/\/\@0\$p2_score\[0\]
*131 DEBUG_SIGS_GTKWAVE\.\/fpga_pins\.\/fpga\.P_time\.\/\/\/\@0\$p2_score\[1\]
*132 DEBUG_SIGS_GTKWAVE\.\/fpga_pins\.\/fpga\.P_time\.\/\/\/\@0\$p2_score\[2\]
*133 DEBUG_SIGS_GTKWAVE\.\/fpga_pins\.\/fpga\.P_time\.\/\/\/\@0\$p2_score\[3\]
*134 DEBUG_SIGS_GTKWAVE\.\/fpga_pins\.\/fpga\.P_time\.\/\/\/\@0\$p2_score\[4\]
*135 DEBUG_SIGS_GTKWAVE\.\/fpga_pins\.\/fpga\.P_time\.\/\/\/\@0\$p2_score\[5\]
*136 DEBUG_SIGS_GTKWAVE\.\/fpga_pins\.\/fpga\.P_time\.\/\/\/\@0\$p2_score\[6\]
*137 DEBUG_SIGS_GTKWAVE\.\/fpga_pins\.\/fpga\.P_time\.\/\/\/\@0\$p2_score\[7\]
*138 DEBUG_SIGS_GTKWAVE\.\/fpga_pins\.\/fpga\.P_time\.\/\/\/\@0\$p2_sub
*139 DEBUG_SIGS_GTKWAVE\.\/fpga_pins\.\/fpga\.P_time\.\/\/\/\@0\$rand_cnt\[0\]
*140 DEBUG_SIGS_GTKWAVE\.\/fpga_pins\.\/fpga\.P_time\.\/\/\/\@0\$rand_cnt\[1\]
*141 DEBUG_SIGS_GTKWAVE\.\/fpga_pins\.\/fpga\.P_time\.\/\/\/\@0\$rand_cnt\[2\]
*142 DEBUG_SIGS_GTKWAVE\.\/fpga_pins\.\/fpga\.P_time\.\/\/\/\@0\$rand_goal\[4\]
*143 DEBUG_SIGS_GTKWAVE\.\/fpga_pins\.\/fpga\.P_time\.\/\/\/\@0\$rand_goal\[5\]
*144 DEBUG_SIGS_GTKWAVE\.\/fpga_pins\.\/fpga\.P_time\.\/\/\/\@0\$rand_goal\[6\]
*145 DEBUG_SIGS_GTKWAVE\.\/fpga_pins\.\/fpga\.P_time\.\/\/\/\@0\$rand_goal\[7\]
*146 DEBUG_SIGS_GTKWAVE\.\/fpga_pins\.\/fpga\.P_time\.\/\/\/\@0\$reset
*147 DEBUG_SIGS_GTKWAVE\.\/fpga_pins\.\/fpga\.P_time\.\/\/\/\@0\$sec_cnt\[0\]
*148 DEBUG_SIGS_GTKWAVE\.\/fpga_pins\.\/fpga\.P_time\.\/\/\/\@0\$sec_cnt\[1\]
*149 DEBUG_SIGS_GTKWAVE\.\/fpga_pins\.\/fpga\.P_time\.\/\/\/\@0\$sec_cnt\[2\]
*150 DEBUG_SIGS_GTKWAVE\.\/fpga_pins\.\/fpga\.P_time\.\/\/\/\@0\$sec_cnt\[3\]
*151 DEBUG_SIGS_GTKWAVE\.\/fpga_pins\.\/fpga\.P_time\.\/\/\/\@0\$start
*152 DEBUG_SIGS_GTKWAVE\.\/fpga_pins\.\/fpga\.P_time\.\/\/\/\@0\$tens\[0\]
*153 DEBUG_SIGS_GTKWAVE\.\/fpga_pins\.\/fpga\.P_time\.\/\/\/\@0\$tens\[1\]
*154 DEBUG_SIGS_GTKWAVE\.\/fpga_pins\.\/fpga\.P_time\.\/\/\/\@0\$tens\[2\]
*155 DEBUG_SIGS_GTKWAVE\.\/fpga_pins\.\/fpga\.P_time\.\/\/\/\@0\$tens\[3\]
*156 DEBUG_SIGS_GTKWAVE\.\/fpga_pins\.\/fpga\.P_time\.\/\/\/\@0\$time_clk
*157 DEBUG_SIGS_GTKWAVE\.\/fpga_pins\.\/fpga\.P_time\.\/\/\/\@0\$winner\[0\]
*158 DEBUG_SIGS_GTKWAVE\.\/fpga_pins\.\/fpga\.P_time\.\/\/\/\@0\$winner\[1\]
*159 DEBUG_SIGS_GTKWAVE\.\/switch\[0\]\.\/\@0\$viz_switch
*160 DEBUG_SIGS_GTKWAVE\.\/switch\[1\]\.\/\@0\$viz_switch
*161 DEBUG_SIGS_GTKWAVE\.\/switch\[2\]\.\/\@0\$viz_switch
*162 DEBUG_SIGS_GTKWAVE\.\/switch\[3\]\.\/\@0\$viz_switch
*163 DEBUG_SIGS_GTKWAVE\.\/switch\[4\]\.\/\@0\$viz_switch
*164 DEBUG_SIGS_GTKWAVE\.\/switch\[5\]\.\/\@0\$viz_switch
*165 DEBUG_SIGS_GTKWAVE\.\/switch\[6\]\.\/\@0\$viz_switch
*166 DEBUG_SIGS_GTKWAVE\.\/switch\[7\]\.\/\@0\$viz_switch
*167 FpgaPins_Fpga_TIME_clk_disp_a1
*168 FpgaPins_Fpga_TIME_clk_disp_a10
*169 FpgaPins_Fpga_TIME_clk_disp_a11
*170 FpgaPins_Fpga_TIME_clk_disp_a12
*171 FpgaPins_Fpga_TIME_clk_disp_a13
*172 FpgaPins_Fpga_TIME_clk_disp_a14
*173 FpgaPins_Fpga_TIME_clk_disp_a15
*174 FpgaPins_Fpga_TIME_clk_disp_a16
*175 FpgaPins_Fpga_TIME_clk_disp_a17
*176 FpgaPins_Fpga_TIME_clk_disp_a18
*177 FpgaPins_Fpga_TIME_clk_disp_a19
*178 FpgaPins_Fpga_TIME_clk_disp_a2
*179 FpgaPins_Fpga_TIME_clk_disp_a3
*180 FpgaPins_Fpga_TIME_clk_disp_a4
*181 FpgaPins_Fpga_TIME_clk_disp_a5
*182 FpgaPins_Fpga_TIME_clk_disp_a6
*183 FpgaPins_Fpga_TIME_clk_disp_a7
*184 FpgaPins_Fpga_TIME_clk_disp_a8
*185 FpgaPins_Fpga_TIME_clk_disp_a9
*186 FpgaPins_Fpga_TIME_cnt_a1\[0\]
*187 FpgaPins_Fpga_TIME_cnt_a1\[10\]
*188 FpgaPins_Fpga_TIME_cnt_a1\[11\]
*189 FpgaPins_Fpga_TIME_cnt_a1\[12\]
*190 FpgaPins_Fpga_TIME_cnt_a1\[13\]
*191 FpgaPins_Fpga_TIME_cnt_a1\[14\]
*192 FpgaPins_Fpga_TIME_cnt_a1\[15\]
*193 FpgaPins_Fpga_TIME_cnt_a1\[16\]
*194 FpgaPins_Fpga_TIME_cnt_a1\[17\]
*195 FpgaPins_Fpga_TIME_cnt_a1\[18\]
*196 FpgaPins_Fpga_TIME_cnt_a1\[19\]
*197 FpgaPins_Fpga_TIME_cnt_a1\[1\]
*198 FpgaPins_Fpga_TIME_cnt_a1\[20\]
*199 FpgaPins_Fpga_TIME_cnt_a1\[2\]
*200 FpgaPins_Fpga_TIME_cnt_a1\[3\]
*201 FpgaPins_Fpga_TIME_cnt_a1\[4\]
*202 FpgaPins_Fpga_TIME_cnt_a1\[5\]
*203 FpgaPins_Fpga_TIME_cnt_a1\[6\]
*204 FpgaPins_Fpga_TIME_cnt_a1\[7\]
*205 FpgaPins_Fpga_TIME_cnt_a1\[8\]
*206 FpgaPins_Fpga_TIME_cnt_a1\[9\]
*207 FpgaPins_Fpga_TIME_hide_a1
*208 FpgaPins_Fpga_TIME_ones_a1\[0\]
*209 FpgaPins_Fpga_TIME_ones_a1\[1\]
*210 FpgaPins_Fpga_TIME_ones_a1\[2\]
*211 FpgaPins_Fpga_TIME_ones_a1\[3\]
*212 FpgaPins_Fpga_TIME_p1_ans_a1\[0\]
*213 FpgaPins_Fpga_TIME_p1_ans_a1\[1\]
*214 FpgaPins_Fpga_TIME_p1_ans_a1\[2\]
*215 FpgaPins_Fpga_TIME_p1_ans_a1\[3\]
*216 FpgaPins_Fpga_TIME_p1_ans_a1\[4\]
*217 FpgaPins_Fpga_TIME_p1_ans_a1\[5\]
*218 FpgaPins_Fpga_TIME_p1_ans_a1\[6\]
*219 FpgaPins_Fpga_TIME_p1_ans_a1\[7\]
*220 FpgaPins_Fpga_TIME_p1_score_a1\[0\]
*221 FpgaPins_Fpga_TIME_p1_score_a1\[1\]
*222 FpgaPins_Fpga_TIME_p1_score_a1\[2\]
*223 FpgaPins_Fpga_TIME_p1_score_a1\[3\]
*224 FpgaPins_Fpga_TIME_p1_score_a1\[4\]
*225 FpgaPins_Fpga_TIME_p1_score_a1\[5\]
*226 FpgaPins_Fpga_TIME_p1_score_a1\[6\]
*227 FpgaPins_Fpga_TIME_p1_score_a1\[7\]
*228 FpgaPins_Fpga_TIME_p1_sub_a1
*229 FpgaPins_Fpga_TIME_p1_sub_a2
*230 FpgaPins_Fpga_TIME_p1_sub_a3
*231 FpgaPins_Fpga_TIME_p1_sub_a4
*232 FpgaPins_Fpga_TIME_p1_sub_a5
*233 FpgaPins_Fpga_TIME_p2_ans_a1\[0\]
*234 FpgaPins_Fpga_TIME_p2_ans_a1\[1\]
*235 FpgaPins_Fpga_TIME_p2_ans_a1\[2\]
*236 FpgaPins_Fpga_TIME_p2_ans_a1\[3\]
*237 FpgaPins_Fpga_TIME_p2_ans_a1\[4\]
*238 FpgaPins_Fpga_TIME_p2_ans_a1\[5\]
*239 FpgaPins_Fpga_TIME_p2_ans_a1\[6\]
*240 FpgaPins_Fpga_TIME_p2_ans_a1\[7\]
*241 FpgaPins_Fpga_TIME_p2_score_a1\[0\]
*242 FpgaPins_Fpga_TIME_p2_score_a1\[1\]
*243 FpgaPins_Fpga_TIME_p2_score_a1\[2\]
*244 FpgaPins_Fpga_TIME_p2_score_a1\[3\]
*245 FpgaPins_Fpga_TIME_p2_score_a1\[4\]
*246 FpgaPins_Fpga_TIME_p2_score_a1\[5\]
*247 FpgaPins_Fpga_TIME_p2_score_a1\[6\]
*248 FpgaPins_Fpga_TIME_p2_score_a1\[7\]
*249 FpgaPins_Fpga_TIME_p2_sub_a1
*250 FpgaPins_Fpga_TIME_p2_sub_a2
*251 FpgaPins_Fpga_TIME_p2_sub_a3
*252 FpgaPins_Fpga_TIME_p2_sub_a4
*253 FpgaPins_Fpga_TIME_p2_sub_a5
*254 FpgaPins_Fpga_TIME_rand_cnt_a1\[0\]
*255 FpgaPins_Fpga_TIME_rand_cnt_a1\[1\]
*256 FpgaPins_Fpga_TIME_rand_cnt_a1\[2\]
*257 FpgaPins_Fpga_TIME_sec_cnt_a1\[0\]
*258 FpgaPins_Fpga_TIME_sec_cnt_a1\[1\]
*259 FpgaPins_Fpga_TIME_sec_cnt_a1\[2\]
*260 FpgaPins_Fpga_TIME_sec_cnt_a1\[3\]
*261 FpgaPins_Fpga_TIME_start_a1
*262 FpgaPins_Fpga_TIME_tens_a1\[0\]
*263 FpgaPins_Fpga_TIME_tens_a1\[1\]
*264 FpgaPins_Fpga_TIME_tens_a1\[2\]
*265 FpgaPins_Fpga_TIME_tens_a1\[3\]
*266 FpgaPins_Fpga_TIME_time_clk_a1
*267 FpgaPins_Fpga_TIME_winner_a1\[0\]
*268 FpgaPins_Fpga_TIME_winner_a1\[2\]
*269 FpgaPins_Fpga_TIME_winner_a1\[3\]
*270 _0000_
*271 _0001_
*272 _0002_
*273 _0003_
*274 _0004_
*275 _0005_
*276 _0006_
*277 _0007_
*278 _0008_
*279 _0009_
*280 _0010_
*281 _0011_
*282 _0012_
*283 _0013_
*284 _0014_
*285 _0015_
*286 _0016_
*287 _0017_
*288 _0018_
*289 _0019_
*290 _0020_
*291 _0021_
*292 _0022_
*293 _0023_
*294 _0024_
*295 _0025_
*296 _0026_
*297 _0027_
*298 _0028_
*299 _0029_
*300 _0030_
*301 _0031_
*302 _0032_
*303 _0033_
*304 _0034_
*305 _0035_
*306 _0036_
*307 _0037_
*308 _0038_
*309 _0039_
*310 _0040_
*311 _0041_
*312 _0042_
*313 _0043_
*314 _0044_
*315 _0045_
*316 _0046_
*317 _0047_
*318 _0048_
*319 _0049_
*320 _0050_
*321 _0051_
*322 _0052_
*323 _0053_
*324 _0054_
*325 _0055_
*326 _0056_
*327 _0057_
*328 _0058_
*329 _0059_
*330 _0060_
*331 _0061_
*332 _0062_
*333 _0063_
*334 _0064_
*335 _0065_
*336 _0066_
*337 _0067_
*338 _0068_
*339 _0069_
*340 _0070_
*341 _0071_
*342 _0072_
*343 _0073_
*344 _0074_
*345 _0075_
*346 _0076_
*347 _0077_
*348 _0078_
*349 _0079_
*350 _0080_
*351 _0081_
*352 _0082_
*353 _0083_
*354 _0084_
*355 _0085_
*356 _0086_
*357 _0087_
*358 _0088_
*359 _0089_
*360 _0090_
*361 _0091_
*362 _0092_
*363 _0093_
*364 _0094_
*365 _0095_
*366 _0096_
*367 _0097_
*368 _0098_
*369 _0099_
*370 _0100_
*371 _0101_
*372 _0102_
*373 _0103_
*374 _0104_
*375 _0105_
*376 _0106_
*377 _0107_
*378 _0108_
*379 _0109_
*380 _0110_
*381 _0111_
*382 _0112_
*383 _0113_
*384 _0114_
*385 _0115_
*386 _0116_
*387 _0117_
*388 _0118_
*389 _0119_
*390 _0120_
*391 _0121_
*392 _0122_
*393 _0123_
*394 _0124_
*395 _0125_
*396 _0126_
*397 _0127_
*398 _0128_
*399 _0129_
*400 _0130_
*401 _0131_
*402 _0132_
*403 _0133_
*404 _0134_
*405 _0135_
*406 _0136_
*407 _0137_
*408 _0138_
*409 _0139_
*410 _0140_
*411 _0141_
*412 _0142_
*413 _0143_
*414 _0144_
*415 _0145_
*416 _0146_
*417 _0147_
*418 _0148_
*419 _0149_
*420 _0150_
*421 _0151_
*422 _0152_
*423 _0153_
*424 _0154_
*425 _0155_
*426 _0156_
*427 _0157_
*428 _0158_
*429 _0159_
*430 _0160_
*431 _0161_
*432 _0162_
*433 _0163_
*434 _0164_
*435 _0165_
*436 _0166_
*437 _0167_
*438 _0168_
*439 _0169_
*440 _0170_
*441 _0171_
*442 _0172_
*443 _0173_
*444 _0174_
*445 _0175_
*446 _0176_
*447 _0177_
*448 _0178_
*449 _0179_
*450 _0180_
*451 _0181_
*452 _0182_
*453 _0183_
*454 _0184_
*455 _0185_
*456 _0186_
*457 _0187_
*458 _0188_
*459 _0189_
*460 _0190_
*461 _0191_
*462 _0192_
*463 _0193_
*464 _0194_
*465 _0195_
*466 _0196_
*467 _0197_
*468 _0198_
*469 _0199_
*470 _0200_
*471 _0201_
*472 _0202_
*473 _0203_
*474 _0204_
*475 _0205_
*476 _0206_
*477 _0207_
*478 _0208_
*479 _0209_
*480 _0210_
*481 _0211_
*482 _0212_
*483 _0213_
*484 _0214_
*485 _0215_
*486 _0216_
*487 _0217_
*488 _0218_
*489 _0219_
*490 _0220_
*491 _0221_
*492 _0222_
*493 _0223_
*494 _0224_
*495 _0225_
*496 _0226_
*497 _0227_
*498 _0228_
*499 _0229_
*500 _0230_
*501 _0231_
*502 _0232_
*503 _0233_
*504 _0234_
*505 _0235_
*506 _0236_
*507 _0237_
*508 _0238_
*509 _0239_
*510 _0240_
*511 _0241_
*512 _0242_
*513 _0243_
*514 _0244_
*515 _0245_
*516 _0246_
*517 _0247_
*518 _0248_
*519 _0249_
*520 _0250_
*521 _0251_
*522 _0252_
*523 _0253_
*524 _0254_
*525 _0255_
*526 _0256_
*527 _0257_
*528 _0258_
*529 _0259_
*530 _0260_
*531 _0261_
*532 _0262_
*533 _0263_
*534 _0264_
*535 _0265_
*536 _0266_
*537 _0267_
*538 _0268_
*539 _0269_
*540 _0270_
*541 _0271_
*542 _0272_
*543 _0273_
*544 _0274_
*545 _0275_
*546 _0276_
*547 _0277_
*548 _0278_
*549 _0279_
*550 _0280_
*551 _0281_
*552 _0282_
*553 _0283_
*554 _0284_
*555 _0285_
*556 _0286_
*557 _0287_
*558 _0288_
*559 _0289_
*560 _0290_
*561 _0291_
*562 _0292_
*563 _0293_
*564 _0294_
*565 _0295_
*566 _0296_
*567 _0297_
*568 _0298_
*569 _0299_
*570 _0300_
*571 _0301_
*572 _0302_
*573 _0303_
*574 _0304_
*575 _0305_
*576 _0306_
*577 _0307_
*578 _0308_
*579 _0309_
*580 _0310_
*581 _0311_
*582 _0312_
*583 _0313_
*584 _0314_
*585 _0315_
*586 _0316_
*587 _0317_
*588 _0318_
*589 _0319_
*590 _0320_
*591 _0321_
*592 _0322_
*593 _0323_
*594 _0324_
*595 _0325_
*596 _0326_
*597 _0327_
*598 _0328_
*599 _0329_
*600 _0330_
*601 _0331_
*602 _0332_
*603 _0333_
*604 _0334_
*605 _0335_
*606 _0336_
*607 _0337_
*608 _0338_
*609 _0339_
*610 _0340_
*611 _0341_
*612 _0342_
*613 _0343_
*614 _0344_
*615 _0345_
*616 _0346_
*617 _0347_
*618 _0348_
*619 _0349_
*620 _0350_
*621 _0351_
*622 _0352_
*623 _0353_
*624 _0354_
*625 _0355_
*626 _0356_
*627 _0357_
*628 _0358_
*629 _0359_
*630 _0360_
*631 _0361_
*632 _0362_
*633 _0363_
*634 _0364_
*635 _0365_
*636 _0366_
*637 _0367_
*638 _0368_
*639 _0369_
*640 _0370_
*641 _0371_
*642 _0372_
*643 _0373_
*644 _0374_
*645 _0375_
*646 _0376_
*647 _0377_
*648 _0378_
*649 _0379_
*650 _0380_
*651 _0381_
*652 _0382_
*653 _0383_
*654 _0384_
*655 _0385_
*656 _0386_
*657 _0387_
*658 _0388_
*659 _0389_
*660 _0390_
*661 _0391_
*662 _0392_
*663 _0393_
*664 _0394_
*665 _0395_
*666 _0396_
*667 _0397_
*668 _0398_
*669 _0399_
*670 _0400_
*671 _0401_
*672 _0402_
*673 _0403_
*674 _0404_
*675 _0405_
*676 _0406_
*677 _0407_
*678 _0408_
*679 _0409_
*680 _0410_
*681 _0411_
*682 _0412_
*683 _0413_
*684 _0414_
*685 _0415_
*686 _0416_
*687 _0417_
*688 _0418_
*689 _0419_
*690 _0420_
*691 _0421_
*692 clknet_0_clk
*693 clknet_3_0__leaf_clk
*694 clknet_3_1__leaf_clk
*695 clknet_3_2__leaf_clk
*696 clknet_3_3__leaf_clk
*697 clknet_3_4__leaf_clk
*698 clknet_3_5__leaf_clk
*699 clknet_3_6__leaf_clk
*700 clknet_3_7__leaf_clk
*701 net1
*702 net10
*703 net11
*704 net2
*705 net28
*706 net29
*707 net3
*708 net30
*709 net31
*710 net32
*711 net33
*712 net34
*713 net35
*714 net36
*715 net37
*716 net38
*717 net39
*718 net4
*719 net40
*720 net41
*721 net42
*722 net43
*723 net44
*724 net45
*725 net46
*726 net47
*727 net48
*728 net49
*729 net5
*730 net50
*731 net51
*732 net52
*733 net53
*734 net54
*735 net55
*736 net56
*737 net57
*738 net58
*739 net59
*740 net6
*741 net60
*742 net61
*743 net62
*744 net63
*745 net64
*746 net65
*747 net66
*748 net67
*749 net68
*750 net69
*751 net7
*752 net70
*753 net71
*754 net72
*755 net73
*756 net74
*757 net75
*758 net76
*759 net77
*760 net78
*761 net79
*762 net8
*763 net80
*764 net81
*765 net82
*766 net83
*767 net84
*768 net85
*769 net86
*770 net87
*771 net88
*772 net9
*773 FILLER_0_0_109
*774 FILLER_0_0_113
*775 FILLER_0_0_125
*776 FILLER_0_0_137
*777 FILLER_0_0_141
*778 FILLER_0_0_15
*779 FILLER_0_0_153
*780 FILLER_0_0_165
*781 FILLER_0_0_169
*782 FILLER_0_0_181
*783 FILLER_0_0_193
*784 FILLER_0_0_197
*785 FILLER_0_0_209
*786 FILLER_0_0_221
*787 FILLER_0_0_225
*788 FILLER_0_0_237
*789 FILLER_0_0_249
*790 FILLER_0_0_253
*791 FILLER_0_0_265
*792 FILLER_0_0_27
*793 FILLER_0_0_277
*794 FILLER_0_0_281
*795 FILLER_0_0_29
*796 FILLER_0_0_293
*797 FILLER_0_0_3
*798 FILLER_0_0_305
*799 FILLER_0_0_309
*800 FILLER_0_0_321
*801 FILLER_0_0_333
*802 FILLER_0_0_41
*803 FILLER_0_0_53
*804 FILLER_0_0_57
*805 FILLER_0_0_69
*806 FILLER_0_0_81
*807 FILLER_0_0_85
*808 FILLER_0_0_97
*809 FILLER_0_10_109
*810 FILLER_0_10_121
*811 FILLER_0_10_141
*812 FILLER_0_10_145
*813 FILLER_0_10_15
*814 FILLER_0_10_162
*815 FILLER_0_10_166
*816 FILLER_0_10_183
*817 FILLER_0_10_192
*818 FILLER_0_10_197
*819 FILLER_0_10_228
*820 FILLER_0_10_236
*821 FILLER_0_10_251
*822 FILLER_0_10_253
*823 FILLER_0_10_265
*824 FILLER_0_10_27
*825 FILLER_0_10_274
*826 FILLER_0_10_286
*827 FILLER_0_10_29
*828 FILLER_0_10_298
*829 FILLER_0_10_3
*830 FILLER_0_10_302
*831 FILLER_0_10_325
*832 FILLER_0_10_334
*833 FILLER_0_10_41
*834 FILLER_0_10_53
*835 FILLER_0_10_65
*836 FILLER_0_10_77
*837 FILLER_0_10_83
*838 FILLER_0_10_85
*839 FILLER_0_10_97
*840 FILLER_0_11_105
*841 FILLER_0_11_111
*842 FILLER_0_11_113
*843 FILLER_0_11_15
*844 FILLER_0_11_153
*845 FILLER_0_11_157
*846 FILLER_0_11_166
*847 FILLER_0_11_177
*848 FILLER_0_11_199
*849 FILLER_0_11_214
*850 FILLER_0_11_222
*851 FILLER_0_11_225
*852 FILLER_0_11_260
*853 FILLER_0_11_27
*854 FILLER_0_11_289
*855 FILLER_0_11_3
*856 FILLER_0_11_330
*857 FILLER_0_11_334
*858 FILLER_0_11_39
*859 FILLER_0_11_51
*860 FILLER_0_11_55
*861 FILLER_0_11_57
*862 FILLER_0_11_69
*863 FILLER_0_11_81
*864 FILLER_0_11_93
*865 FILLER_0_12_109
*866 FILLER_0_12_121
*867 FILLER_0_12_132
*868 FILLER_0_12_15
*869 FILLER_0_12_189
*870 FILLER_0_12_195
*871 FILLER_0_12_213
*872 FILLER_0_12_225
*873 FILLER_0_12_229
*874 FILLER_0_12_250
*875 FILLER_0_12_253
*876 FILLER_0_12_27
*877 FILLER_0_12_29
*878 FILLER_0_12_291
*879 FILLER_0_12_3
*880 FILLER_0_12_333
*881 FILLER_0_12_41
*882 FILLER_0_12_53
*883 FILLER_0_12_65
*884 FILLER_0_12_77
*885 FILLER_0_12_83
*886 FILLER_0_12_85
*887 FILLER_0_12_97
*888 FILLER_0_13_105
*889 FILLER_0_13_111
*890 FILLER_0_13_113
*891 FILLER_0_13_132
*892 FILLER_0_13_15
*893 FILLER_0_13_165
*894 FILLER_0_13_177
*895 FILLER_0_13_199
*896 FILLER_0_13_218
*897 FILLER_0_13_225
*898 FILLER_0_13_229
*899 FILLER_0_13_257
*900 FILLER_0_13_27
*901 FILLER_0_13_279
*902 FILLER_0_13_297
*903 FILLER_0_13_3
*904 FILLER_0_13_309
*905 FILLER_0_13_321
*906 FILLER_0_13_333
*907 FILLER_0_13_39
*908 FILLER_0_13_51
*909 FILLER_0_13_55
*910 FILLER_0_13_57
*911 FILLER_0_13_69
*912 FILLER_0_13_81
*913 FILLER_0_13_93
*914 FILLER_0_14_109
*915 FILLER_0_14_128
*916 FILLER_0_14_141
*917 FILLER_0_14_15
*918 FILLER_0_14_163
*919 FILLER_0_14_197
*920 FILLER_0_14_203
*921 FILLER_0_14_248
*922 FILLER_0_14_253
*923 FILLER_0_14_257
*924 FILLER_0_14_27
*925 FILLER_0_14_287
*926 FILLER_0_14_29
*927 FILLER_0_14_299
*928 FILLER_0_14_3
*929 FILLER_0_14_307
*930 FILLER_0_14_309
*931 FILLER_0_14_321
*932 FILLER_0_14_333
*933 FILLER_0_14_41
*934 FILLER_0_14_53
*935 FILLER_0_14_65
*936 FILLER_0_14_77
*937 FILLER_0_14_83
*938 FILLER_0_14_85
*939 FILLER_0_14_97
*940 FILLER_0_15_103
*941 FILLER_0_15_111
*942 FILLER_0_15_113
*943 FILLER_0_15_124
*944 FILLER_0_15_15
*945 FILLER_0_15_165
*946 FILLER_0_15_175
*947 FILLER_0_15_179
*948 FILLER_0_15_199
*949 FILLER_0_15_211
*950 FILLER_0_15_220
*951 FILLER_0_15_225
*952 FILLER_0_15_229
*953 FILLER_0_15_246
*954 FILLER_0_15_252
*955 FILLER_0_15_27
*956 FILLER_0_15_289
*957 FILLER_0_15_295
*958 FILLER_0_15_3
*959 FILLER_0_15_307
*960 FILLER_0_15_319
*961 FILLER_0_15_331
*962 FILLER_0_15_39
*963 FILLER_0_15_51
*964 FILLER_0_15_55
*965 FILLER_0_15_57
*966 FILLER_0_15_69
*967 FILLER_0_15_81
*968 FILLER_0_15_87
*969 FILLER_0_15_91
*970 FILLER_0_16_103
*971 FILLER_0_16_121
*972 FILLER_0_16_133
*973 FILLER_0_16_139
*974 FILLER_0_16_141
*975 FILLER_0_16_15
*976 FILLER_0_16_153
*977 FILLER_0_16_188
*978 FILLER_0_16_197
*979 FILLER_0_16_202
*980 FILLER_0_16_210
*981 FILLER_0_16_222
*982 FILLER_0_16_27
*983 FILLER_0_16_29
*984 FILLER_0_16_3
*985 FILLER_0_16_305
*986 FILLER_0_16_309
*987 FILLER_0_16_321
*988 FILLER_0_16_333
*989 FILLER_0_16_41
*990 FILLER_0_16_53
*991 FILLER_0_16_61
*992 FILLER_0_16_80
*993 FILLER_0_16_85
*994 FILLER_0_17_109
*995 FILLER_0_17_116
*996 FILLER_0_17_140
*997 FILLER_0_17_15
*998 FILLER_0_17_152
*999 FILLER_0_17_160
*1000 FILLER_0_17_191
*1001 FILLER_0_17_21
*1002 FILLER_0_17_225
*1003 FILLER_0_17_242
*1004 FILLER_0_17_252
*1005 FILLER_0_17_262
*1006 FILLER_0_17_292
*1007 FILLER_0_17_3
*1008 FILLER_0_17_304
*1009 FILLER_0_17_312
*1010 FILLER_0_17_323
*1011 FILLER_0_17_46
*1012 FILLER_0_17_50
*1013 FILLER_0_17_57
*1014 FILLER_0_17_89
*1015 FILLER_0_17_97
*1016 FILLER_0_18_137
*1017 FILLER_0_18_147
*1018 FILLER_0_18_155
*1019 FILLER_0_18_193
*1020 FILLER_0_18_223
*1021 FILLER_0_18_247
*1022 FILLER_0_18_251
*1023 FILLER_0_18_253
*1024 FILLER_0_18_265
*1025 FILLER_0_18_292
*1026 FILLER_0_18_3
*1027 FILLER_0_18_300
*1028 FILLER_0_18_325
*1029 FILLER_0_18_334
*1030 FILLER_0_18_45
*1031 FILLER_0_18_53
*1032 FILLER_0_18_77
*1033 FILLER_0_18_85
*1034 FILLER_0_19_121
*1035 FILLER_0_19_129
*1036 FILLER_0_19_15
*1037 FILLER_0_19_152
*1038 FILLER_0_19_164
*1039 FILLER_0_19_169
*1040 FILLER_0_19_181
*1041 FILLER_0_19_202
*1042 FILLER_0_19_214
*1043 FILLER_0_19_222
*1044 FILLER_0_19_225
*1045 FILLER_0_19_23
*1046 FILLER_0_19_230
*1047 FILLER_0_19_237
*1048 FILLER_0_19_241
*1049 FILLER_0_19_250
*1050 FILLER_0_19_262
*1051 FILLER_0_19_270
*1052 FILLER_0_19_274
*1053 FILLER_0_19_281
*1054 FILLER_0_19_293
*1055 FILLER_0_19_297
*1056 FILLER_0_19_3
*1057 FILLER_0_19_32
*1058 FILLER_0_19_334
*1059 FILLER_0_19_41
*1060 FILLER_0_19_53
*1061 FILLER_0_19_57
*1062 FILLER_0_19_73
*1063 FILLER_0_1_105
*1064 FILLER_0_1_111
*1065 FILLER_0_1_113
*1066 FILLER_0_1_125
*1067 FILLER_0_1_137
*1068 FILLER_0_1_149
*1069 FILLER_0_1_15
*1070 FILLER_0_1_161
*1071 FILLER_0_1_167
*1072 FILLER_0_1_169
*1073 FILLER_0_1_181
*1074 FILLER_0_1_193
*1075 FILLER_0_1_205
*1076 FILLER_0_1_217
*1077 FILLER_0_1_223
*1078 FILLER_0_1_225
*1079 FILLER_0_1_237
*1080 FILLER_0_1_249
*1081 FILLER_0_1_261
*1082 FILLER_0_1_27
*1083 FILLER_0_1_273
*1084 FILLER_0_1_279
*1085 FILLER_0_1_281
*1086 FILLER_0_1_293
*1087 FILLER_0_1_3
*1088 FILLER_0_1_305
*1089 FILLER_0_1_317
*1090 FILLER_0_1_329
*1091 FILLER_0_1_39
*1092 FILLER_0_1_51
*1093 FILLER_0_1_55
*1094 FILLER_0_1_57
*1095 FILLER_0_1_69
*1096 FILLER_0_1_81
*1097 FILLER_0_1_93
*1098 FILLER_0_20_148
*1099 FILLER_0_20_15
*1100 FILLER_0_20_158
*1101 FILLER_0_20_167
*1102 FILLER_0_20_175
*1103 FILLER_0_20_179
*1104 FILLER_0_20_191
*1105 FILLER_0_20_195
*1106 FILLER_0_20_214
*1107 FILLER_0_20_231
*1108 FILLER_0_20_250
*1109 FILLER_0_20_253
*1110 FILLER_0_20_265
*1111 FILLER_0_20_283
*1112 FILLER_0_20_29
*1113 FILLER_0_20_295
*1114 FILLER_0_20_3
*1115 FILLER_0_20_333
*1116 FILLER_0_20_37
*1117 FILLER_0_20_64
*1118 FILLER_0_20_76
*1119 FILLER_0_20_80
*1120 FILLER_0_20_89
*1121 FILLER_0_20_97
*1122 FILLER_0_21_103
*1123 FILLER_0_21_111
*1124 FILLER_0_21_119
*1125 FILLER_0_21_131
*1126 FILLER_0_21_139
*1127 FILLER_0_21_15
*1128 FILLER_0_21_158
*1129 FILLER_0_21_166
*1130 FILLER_0_21_169
*1131 FILLER_0_21_19
*1132 FILLER_0_21_196
*1133 FILLER_0_21_208
*1134 FILLER_0_21_220
*1135 FILLER_0_21_225
*1136 FILLER_0_21_260
*1137 FILLER_0_21_281
*1138 FILLER_0_21_290
*1139 FILLER_0_21_3
*1140 FILLER_0_21_302
*1141 FILLER_0_21_40
*1142 FILLER_0_21_46
*1143 FILLER_0_21_65
*1144 FILLER_0_21_73
*1145 FILLER_0_21_98
*1146 FILLER_0_22_11
*1147 FILLER_0_22_127
*1148 FILLER_0_22_163
*1149 FILLER_0_22_194
*1150 FILLER_0_22_204
*1151 FILLER_0_22_236
*1152 FILLER_0_22_250
*1153 FILLER_0_22_253
*1154 FILLER_0_22_29
*1155 FILLER_0_22_291
*1156 FILLER_0_22_3
*1157 FILLER_0_22_303
*1158 FILLER_0_22_307
*1159 FILLER_0_22_309
*1160 FILLER_0_22_326
*1161 FILLER_0_22_334
*1162 FILLER_0_22_65
*1163 FILLER_0_22_83
*1164 FILLER_0_23_104
*1165 FILLER_0_23_108
*1166 FILLER_0_23_116
*1167 FILLER_0_23_124
*1168 FILLER_0_23_144
*1169 FILLER_0_23_15
*1170 FILLER_0_23_169
*1171 FILLER_0_23_203
*1172 FILLER_0_23_215
*1173 FILLER_0_23_223
*1174 FILLER_0_23_225
*1175 FILLER_0_23_240
*1176 FILLER_0_23_252
*1177 FILLER_0_23_264
*1178 FILLER_0_23_268
*1179 FILLER_0_23_27
*1180 FILLER_0_23_293
*1181 FILLER_0_23_3
*1182 FILLER_0_23_305
*1183 FILLER_0_23_311
*1184 FILLER_0_23_324
*1185 FILLER_0_23_332
*1186 FILLER_0_23_39
*1187 FILLER_0_23_47
*1188 FILLER_0_23_55
*1189 FILLER_0_23_73
*1190 FILLER_0_23_80
*1191 FILLER_0_24_108
*1192 FILLER_0_24_120
*1193 FILLER_0_24_139
*1194 FILLER_0_24_146
*1195 FILLER_0_24_15
*1196 FILLER_0_24_167
*1197 FILLER_0_24_179
*1198 FILLER_0_24_187
*1199 FILLER_0_24_195
*1200 FILLER_0_24_197
*1201 FILLER_0_24_208
*1202 FILLER_0_24_216
*1203 FILLER_0_24_225
*1204 FILLER_0_24_23
*1205 FILLER_0_24_249
*1206 FILLER_0_24_27
*1207 FILLER_0_24_29
*1208 FILLER_0_24_298
*1209 FILLER_0_24_3
*1210 FILLER_0_24_306
*1211 FILLER_0_24_309
*1212 FILLER_0_24_331
*1213 FILLER_0_24_41
*1214 FILLER_0_24_53
*1215 FILLER_0_24_65
*1216 FILLER_0_24_77
*1217 FILLER_0_24_83
*1218 FILLER_0_25_107
*1219 FILLER_0_25_111
*1220 FILLER_0_25_113
*1221 FILLER_0_25_149
*1222 FILLER_0_25_15
*1223 FILLER_0_25_161
*1224 FILLER_0_25_167
*1225 FILLER_0_25_175
*1226 FILLER_0_25_188
*1227 FILLER_0_25_200
*1228 FILLER_0_25_225
*1229 FILLER_0_25_254
*1230 FILLER_0_25_267
*1231 FILLER_0_25_279
*1232 FILLER_0_25_290
*1233 FILLER_0_25_3
*1234 FILLER_0_25_319
*1235 FILLER_0_25_331
*1236 FILLER_0_25_47
*1237 FILLER_0_25_55
*1238 FILLER_0_25_64
*1239 FILLER_0_25_69
*1240 FILLER_0_25_81
*1241 FILLER_0_25_93
*1242 FILLER_0_26_111
*1243 FILLER_0_26_119
*1244 FILLER_0_26_136
*1245 FILLER_0_26_15
*1246 FILLER_0_26_175
*1247 FILLER_0_26_181
*1248 FILLER_0_26_191
*1249 FILLER_0_26_195
*1250 FILLER_0_26_197
*1251 FILLER_0_26_207
*1252 FILLER_0_26_21
*1253 FILLER_0_26_229
*1254 FILLER_0_26_248
*1255 FILLER_0_26_253
*1256 FILLER_0_26_281
*1257 FILLER_0_26_29
*1258 FILLER_0_26_292
*1259 FILLER_0_26_3
*1260 FILLER_0_26_304
*1261 FILLER_0_26_326
*1262 FILLER_0_26_334
*1263 FILLER_0_26_46
*1264 FILLER_0_26_54
*1265 FILLER_0_26_61
*1266 FILLER_0_26_83
*1267 FILLER_0_26_85
*1268 FILLER_0_26_93
*1269 FILLER_0_27_126
*1270 FILLER_0_27_130
*1271 FILLER_0_27_15
*1272 FILLER_0_27_152
*1273 FILLER_0_27_167
*1274 FILLER_0_27_177
*1275 FILLER_0_27_181
*1276 FILLER_0_27_197
*1277 FILLER_0_27_216
*1278 FILLER_0_27_253
*1279 FILLER_0_27_265
*1280 FILLER_0_27_271