*SPEF "ieee 1481-1999"
*DESIGN "tt_um_wokwi_395055722430895105"
*DATE "10:11:25 Sunday April 14, 2024"
*VENDOR "The OpenROAD Project"
*PROGRAM "OpenROAD"
*VERSION "0889970d1790a2617e69f253221b8bd7626e51dc"
*DESIGN_FLOW "NAME_SCOPE LOCAL" "PIN_CAP NONE"
*DIVIDER /
*DELIMITER :
*BUS_DELIMITER []
*T_UNIT 1 NS
*C_UNIT 1 PF
*R_UNIT 1 OHM
*L_UNIT 1 HENRY

*NAME_MAP
*3 clk
*4 ena
*5 rst_n
*6 ui_in[0]
*7 ui_in[1]
*8 ui_in[2]
*9 ui_in[3]
*10 ui_in[4]
*11 ui_in[5]
*12 ui_in[6]
*13 ui_in[7]
*14 uio_in[0]
*15 uio_in[1]
*16 uio_in[2]
*17 uio_in[3]
*18 uio_in[4]
*19 uio_in[5]
*20 uio_in[6]
*21 uio_in[7]
*22 net3
*23 net4
*24 net5
*25 net6
*26 net7
*27 net8
*28 net9
*29 net10
*30 net11
*31 net12
*32 net13
*33 net14
*34 net15
*35 net16
*36 net17
*37 net18
*38 uo_out[0]
*39 uo_out[1]
*40 uo_out[2]
*41 uo_out[3]
*42 uo_out[4]
*43 uo_out[5]
*44 uo_out[6]
*45 uo_out[7]
*46 _00_
*47 _01_
*48 _02_
*49 _03_
*50 _04_
*51 _05_
*52 _06_
*53 _07_
*54 _08_
*55 _09_
*56 _10_
*57 _11_
*58 _12_
*59 _13_
*60 _14_
*61 _15_
*62 _16_
*63 _17_
*64 _18_
*65 _19_
*66 and4\.b
*67 clknet_0_clk
*68 clknet_1_0__leaf_clk
*69 clknet_1_1__leaf_clk
*70 flop10\.q
*71 flop11\.q
*72 flop12\.q
*73 flop14\.q
*74 flop15\.q
*75 flop16\.q
*76 flop17\.q
*77 flop18\.q
*78 flop19\.q
*79 flop20\.q
*80 net1
*81 net19
*82 net2
*83 net20
*84 net21
*85 net22
*86 net23
*87 net24
*88 net25
*89 net26
*90 net27
*91 net28
*92 net29
*93 FILLER_0_0_109
*94 FILLER_0_0_113
*95 FILLER_0_0_125
*96 FILLER_0_0_137
*97 FILLER_0_0_141
*98 FILLER_0_0_15
*99 FILLER_0_0_153
*100 FILLER_0_0_165
*101 FILLER_0_0_169
*102 FILLER_0_0_181
*103 FILLER_0_0_193
*104 FILLER_0_0_197
*105 FILLER_0_0_209
*106 FILLER_0_0_221
*107 FILLER_0_0_225
*108 FILLER_0_0_237
*109 FILLER_0_0_249
*110 FILLER_0_0_253
*111 FILLER_0_0_265
*112 FILLER_0_0_27
*113 FILLER_0_0_277
*114 FILLER_0_0_281
*115 FILLER_0_0_29
*116 FILLER_0_0_293
*117 FILLER_0_0_3
*118 FILLER_0_0_305
*119 FILLER_0_0_309
*120 FILLER_0_0_321
*121 FILLER_0_0_333
*122 FILLER_0_0_41
*123 FILLER_0_0_53
*124 FILLER_0_0_57
*125 FILLER_0_0_69
*126 FILLER_0_0_81
*127 FILLER_0_0_85
*128 FILLER_0_0_97
*129 FILLER_0_10_109
*130 FILLER_0_10_121
*131 FILLER_0_10_133
*132 FILLER_0_10_139
*133 FILLER_0_10_141
*134 FILLER_0_10_15
*135 FILLER_0_10_153
*136 FILLER_0_10_165
*137 FILLER_0_10_177
*138 FILLER_0_10_189
*139 FILLER_0_10_195
*140 FILLER_0_10_197
*141 FILLER_0_10_209
*142 FILLER_0_10_221
*143 FILLER_0_10_233
*144 FILLER_0_10_245
*145 FILLER_0_10_251
*146 FILLER_0_10_253
*147 FILLER_0_10_265
*148 FILLER_0_10_27
*149 FILLER_0_10_277
*150 FILLER_0_10_289
*151 FILLER_0_10_29
*152 FILLER_0_10_3
*153 FILLER_0_10_301
*154 FILLER_0_10_307
*155 FILLER_0_10_309
*156 FILLER_0_10_321
*157 FILLER_0_10_333
*158 FILLER_0_10_41
*159 FILLER_0_10_53
*160 FILLER_0_10_65
*161 FILLER_0_10_77
*162 FILLER_0_10_83
*163 FILLER_0_10_85
*164 FILLER_0_10_97
*165 FILLER_0_11_105
*166 FILLER_0_11_111
*167 FILLER_0_11_113
*168 FILLER_0_11_125
*169 FILLER_0_11_137
*170 FILLER_0_11_149
*171 FILLER_0_11_15
*172 FILLER_0_11_161
*173 FILLER_0_11_167
*174 FILLER_0_11_169
*175 FILLER_0_11_181
*176 FILLER_0_11_193
*177 FILLER_0_11_205
*178 FILLER_0_11_217
*179 FILLER_0_11_223
*180 FILLER_0_11_225
*181 FILLER_0_11_237
*182 FILLER_0_11_249
*183 FILLER_0_11_261
*184 FILLER_0_11_27
*185 FILLER_0_11_273
*186 FILLER_0_11_279
*187 FILLER_0_11_281
*188 FILLER_0_11_293
*189 FILLER_0_11_3
*190 FILLER_0_11_305
*191 FILLER_0_11_317
*192 FILLER_0_11_329
*193 FILLER_0_11_39
*194 FILLER_0_11_51
*195 FILLER_0_11_55
*196 FILLER_0_11_57
*197 FILLER_0_11_69
*198 FILLER_0_11_81
*199 FILLER_0_11_93
*200 FILLER_0_12_109
*201 FILLER_0_12_121
*202 FILLER_0_12_133
*203 FILLER_0_12_139
*204 FILLER_0_12_141
*205 FILLER_0_12_15
*206 FILLER_0_12_153
*207 FILLER_0_12_165
*208 FILLER_0_12_177
*209 FILLER_0_12_189
*210 FILLER_0_12_195
*211 FILLER_0_12_197
*212 FILLER_0_12_209
*213 FILLER_0_12_221
*214 FILLER_0_12_233
*215 FILLER_0_12_245
*216 FILLER_0_12_251
*217 FILLER_0_12_253
*218 FILLER_0_12_265
*219 FILLER_0_12_27
*220 FILLER_0_12_277
*221 FILLER_0_12_289
*222 FILLER_0_12_29
*223 FILLER_0_12_3
*224 FILLER_0_12_301
*225 FILLER_0_12_307
*226 FILLER_0_12_309
*227 FILLER_0_12_321
*228 FILLER_0_12_333
*229 FILLER_0_12_41
*230 FILLER_0_12_53
*231 FILLER_0_12_65
*232 FILLER_0_12_77
*233 FILLER_0_12_83
*234 FILLER_0_12_85
*235 FILLER_0_12_97
*236 FILLER_0_13_105
*237 FILLER_0_13_111
*238 FILLER_0_13_113
*239 FILLER_0_13_125
*240 FILLER_0_13_137
*241 FILLER_0_13_149
*242 FILLER_0_13_15
*243 FILLER_0_13_161
*244 FILLER_0_13_167
*245 FILLER_0_13_169
*246 FILLER_0_13_181
*247 FILLER_0_13_193
*248 FILLER_0_13_205
*249 FILLER_0_13_217
*250 FILLER_0_13_223
*251 FILLER_0_13_225
*252 FILLER_0_13_237
*253 FILLER_0_13_249
*254 FILLER_0_13_261
*255 FILLER_0_13_27
*256 FILLER_0_13_273
*257 FILLER_0_13_279
*258 FILLER_0_13_281
*259 FILLER_0_13_293
*260 FILLER_0_13_3
*261 FILLER_0_13_305
*262 FILLER_0_13_317
*263 FILLER_0_13_329
*264 FILLER_0_13_39
*265 FILLER_0_13_51
*266 FILLER_0_13_55
*267 FILLER_0_13_57
*268 FILLER_0_13_69
*269 FILLER_0_13_81
*270 FILLER_0_13_93
*271 FILLER_0_14_109
*272 FILLER_0_14_121
*273 FILLER_0_14_133
*274 FILLER_0_14_139
*275 FILLER_0_14_141
*276 FILLER_0_14_15
*277 FILLER_0_14_153
*278 FILLER_0_14_165
*279 FILLER_0_14_177
*280 FILLER_0_14_189
*281 FILLER_0_14_195
*282 FILLER_0_14_197
*283 FILLER_0_14_209
*284 FILLER_0_14_221
*285 FILLER_0_14_233
*286 FILLER_0_14_245
*287 FILLER_0_14_251
*288 FILLER_0_14_253
*289 FILLER_0_14_265
*290 FILLER_0_14_27
*291 FILLER_0_14_277
*292 FILLER_0_14_289
*293 FILLER_0_14_29
*294 FILLER_0_14_3
*295 FILLER_0_14_301
*296 FILLER_0_14_307
*297 FILLER_0_14_309
*298 FILLER_0_14_321
*299 FILLER_0_14_333
*300 FILLER_0_14_41
*301 FILLER_0_14_53
*302 FILLER_0_14_65
*303 FILLER_0_14_77
*304 FILLER_0_14_83
*305 FILLER_0_14_85
*306 FILLER_0_14_97
*307 FILLER_0_15_105
*308 FILLER_0_15_111
*309 FILLER_0_15_113
*310 FILLER_0_15_125
*311 FILLER_0_15_137
*312 FILLER_0_15_149
*313 FILLER_0_15_15
*314 FILLER_0_15_161
*315 FILLER_0_15_167
*316 FILLER_0_15_169
*317 FILLER_0_15_181
*318 FILLER_0_15_193
*319 FILLER_0_15_205
*320 FILLER_0_15_217
*321 FILLER_0_15_223
*322 FILLER_0_15_225
*323 FILLER_0_15_237
*324 FILLER_0_15_249
*325 FILLER_0_15_261
*326 FILLER_0_15_27
*327 FILLER_0_15_273
*328 FILLER_0_15_279
*329 FILLER_0_15_281
*330 FILLER_0_15_293
*331 FILLER_0_15_3
*332 FILLER_0_15_305
*333 FILLER_0_15_317
*334 FILLER_0_15_329
*335 FILLER_0_15_39
*336 FILLER_0_15_51
*337 FILLER_0_15_55
*338 FILLER_0_15_57
*339 FILLER_0_15_69
*340 FILLER_0_15_81
*341 FILLER_0_15_93
*342 FILLER_0_16_109
*343 FILLER_0_16_121
*344 FILLER_0_16_133
*345 FILLER_0_16_139
*346 FILLER_0_16_141
*347 FILLER_0_16_15
*348 FILLER_0_16_153
*349 FILLER_0_16_165
*350 FILLER_0_16_177
*351 FILLER_0_16_189
*352 FILLER_0_16_195
*353 FILLER_0_16_197
*354 FILLER_0_16_209
*355 FILLER_0_16_221
*356 FILLER_0_16_233
*357 FILLER_0_16_245
*358 FILLER_0_16_251
*359 FILLER_0_16_253
*360 FILLER_0_16_265
*361 FILLER_0_16_27
*362 FILLER_0_16_277
*363 FILLER_0_16_289
*364 FILLER_0_16_29
*365 FILLER_0_16_3
*366 FILLER_0_16_301
*367 FILLER_0_16_307
*368 FILLER_0_16_309
*369 FILLER_0_16_321
*370 FILLER_0_16_333
*371 FILLER_0_16_41
*372 FILLER_0_16_53
*373 FILLER_0_16_65
*374 FILLER_0_16_77
*375 FILLER_0_16_83
*376 FILLER_0_16_85
*377 FILLER_0_16_97
*378 FILLER_0_17_105
*379 FILLER_0_17_111
*380 FILLER_0_17_113
*381 FILLER_0_17_125
*382 FILLER_0_17_137
*383 FILLER_0_17_149
*384 FILLER_0_17_15
*385 FILLER_0_17_161
*386 FILLER_0_17_167
*387 FILLER_0_17_169
*388 FILLER_0_17_181
*389 FILLER_0_17_193
*390 FILLER_0_17_205
*391 FILLER_0_17_217
*392 FILLER_0_17_223
*393 FILLER_0_17_225
*394 FILLER_0_17_237
*395 FILLER_0_17_249
*396 FILLER_0_17_261
*397 FILLER_0_17_27
*398 FILLER_0_17_273
*399 FILLER_0_17_279
*400 FILLER_0_17_281
*401 FILLER_0_17_293
*402 FILLER_0_17_3
*403 FILLER_0_17_305
*404 FILLER_0_17_317
*405 FILLER_0_17_329
*406 FILLER_0_17_39
*407 FILLER_0_17_51
*408 FILLER_0_17_55
*409 FILLER_0_17_57
*410 FILLER_0_17_69
*411 FILLER_0_17_81
*412 FILLER_0_17_93
*413 FILLER_0_18_109
*414 FILLER_0_18_121
*415 FILLER_0_18_133
*416 FILLER_0_18_139
*417 FILLER_0_18_141
*418 FILLER_0_18_15
*419 FILLER_0_18_153
*420 FILLER_0_18_165
*421 FILLER_0_18_177
*422 FILLER_0_18_189
*423 FILLER_0_18_195
*424 FILLER_0_18_197
*425 FILLER_0_18_209
*426 FILLER_0_18_221
*427 FILLER_0_18_233
*428 FILLER_0_18_245
*429 FILLER_0_18_251
*430 FILLER_0_18_253
*431 FILLER_0_18_265
*432 FILLER_0_18_27
*433 FILLER_0_18_277
*434 FILLER_0_18_289
*435 FILLER_0_18_29
*436 FILLER_0_18_3
*437 FILLER_0_18_301
*438 FILLER_0_18_307
*439 FILLER_0_18_309
*440 FILLER_0_18_321
*441 FILLER_0_18_333
*442 FILLER_0_18_41
*443 FILLER_0_18_53
*444 FILLER_0_18_65
*445 FILLER_0_18_77
*446 FILLER_0_18_83
*447 FILLER_0_18_85
*448 FILLER_0_18_97
*449 FILLER_0_19_105
*450 FILLER_0_19_111
*451 FILLER_0_19_113
*452 FILLER_0_19_125
*453 FILLER_0_19_137
*454 FILLER_0_19_149
*455 FILLER_0_19_15
*456 FILLER_0_19_161
*457 FILLER_0_19_167
*458 FILLER_0_19_169
*459 FILLER_0_19_181
*460 FILLER_0_19_193
*461 FILLER_0_19_205
*462 FILLER_0_19_217
*463 FILLER_0_19_223
*464 FILLER_0_19_225
*465 FILLER_0_19_237
*466 FILLER_0_19_249
*467 FILLER_0_19_261
*468 FILLER_0_19_27
*469 FILLER_0_19_273
*470 FILLER_0_19_279
*471 FILLER_0_19_281
*472 FILLER_0_19_293
*473 FILLER_0_19_3
*474 FILLER_0_19_305
*475 FILLER_0_19_317
*476 FILLER_0_19_329
*477 FILLER_0_19_39
*478 FILLER_0_19_51
*479 FILLER_0_19_55
*480 FILLER_0_19_57
*481 FILLER_0_19_69
*482 FILLER_0_19_81
*483 FILLER_0_19_93
*484 FILLER_0_1_105
*485 FILLER_0_1_111
*486 FILLER_0_1_113
*487 FILLER_0_1_125
*488 FILLER_0_1_137
*489 FILLER_0_1_149
*490 FILLER_0_1_15
*491 FILLER_0_1_161
*492 FILLER_0_1_167
*493 FILLER_0_1_169
*494 FILLER_0_1_181
*495 FILLER_0_1_193
*496 FILLER_0_1_205
*497 FILLER_0_1_217
*498 FILLER_0_1_223
*499 FILLER_0_1_225
*500 FILLER_0_1_237
*501 FILLER_0_1_249
*502 FILLER_0_1_261
*503 FILLER_0_1_27
*504 FILLER_0_1_273
*505 FILLER_0_1_279
*506 FILLER_0_1_281
*507 FILLER_0_1_293
*508 FILLER_0_1_3
*509 FILLER_0_1_305
*510 FILLER_0_1_317
*511 FILLER_0_1_329
*512 FILLER_0_1_39
*513 FILLER_0_1_51
*514 FILLER_0_1_55
*515 FILLER_0_1_57
*516 FILLER_0_1_69
*517 FILLER_0_1_81
*518 FILLER_0_1_93
*519 FILLER_0_20_109
*520 FILLER_0_20_121
*521 FILLER_0_20_133
*522 FILLER_0_20_139
*523 FILLER_0_20_141
*524 FILLER_0_20_15
*525 FILLER_0_20_153
*526 FILLER_0_20_165
*527 FILLER_0_20_177
*528 FILLER_0_20_189
*529 FILLER_0_20_195
*530 FILLER_0_20_197
*531 FILLER_0_20_209
*532 FILLER_0_20_221
*533 FILLER_0_20_233
*534 FILLER_0_20_245
*535 FILLER_0_20_251
*536 FILLER_0_20_253
*537 FILLER_0_20_265
*538 FILLER_0_20_27
*539 FILLER_0_20_277
*540 FILLER_0_20_289
*541 FILLER_0_20_29
*542 FILLER_0_20_3
*543 FILLER_0_20_301
*544 FILLER_0_20_307
*545 FILLER_0_20_309
*546 FILLER_0_20_321
*547 FILLER_0_20_333
*548 FILLER_0_20_41
*549 FILLER_0_20_53
*550 FILLER_0_20_65
*551 FILLER_0_20_77
*552 FILLER_0_20_83
*553 FILLER_0_20_85
*554 FILLER_0_20_97
*555 FILLER_0_21_105
*556 FILLER_0_21_111
*557 FILLER_0_21_113
*558 FILLER_0_21_125
*559 FILLER_0_21_137
*560 FILLER_0_21_149
*561 FILLER_0_21_15
*562 FILLER_0_21_161
*563 FILLER_0_21_167
*564 FILLER_0_21_169
*565 FILLER_0_21_181
*566 FILLER_0_21_193
*567 FILLER_0_21_205
*568 FILLER_0_21_217
*569 FILLER_0_21_223
*570 FILLER_0_21_225
*571 FILLER_0_21_237
*572 FILLER_0_21_249
*573 FILLER_0_21_261
*574 FILLER_0_21_27
*575 FILLER_0_21_273
*576 FILLER_0_21_279
*577 FILLER_0_21_281
*578 FILLER_0_21_293
*579 FILLER_0_21_3
*580 FILLER_0_21_305
*581 FILLER_0_21_317
*582 FILLER_0_21_329
*583 FILLER_0_21_39
*584 FILLER_0_21_51
*585 FILLER_0_21_55
*586 FILLER_0_21_57
*587 FILLER_0_21_69
*588 FILLER_0_21_81
*589 FILLER_0_21_93
*590 FILLER_0_22_109
*591 FILLER_0_22_121
*592 FILLER_0_22_133
*593 FILLER_0_22_139
*594 FILLER_0_22_141
*595 FILLER_0_22_15
*596 FILLER_0_22_153
*597 FILLER_0_22_165
*598 FILLER_0_22_177
*599 FILLER_0_22_189
*600 FILLER_0_22_195
*601 FILLER_0_22_197
*602 FILLER_0_22_209
*603 FILLER_0_22_221
*604 FILLER_0_22_233
*605 FILLER_0_22_245
*606 FILLER_0_22_251
*607 FILLER_0_22_253
*608 FILLER_0_22_265
*609 FILLER_0_22_27
*610 FILLER_0_22_277
*611 FILLER_0_22_289
*612 FILLER_0_22_29
*613 FILLER_0_22_3
*614 FILLER_0_22_301
*615 FILLER_0_22_307
*616 FILLER_0_22_309
*617 FILLER_0_22_321
*618 FILLER_0_22_333
*619 FILLER_0_22_41
*620 FILLER_0_22_53
*621 FILLER_0_22_65
*622 FILLER_0_22_77
*623 FILLER_0_22_83
*624 FILLER_0_22_85
*625 FILLER_0_22_97
*626 FILLER_0_23_105
*627 FILLER_0_23_111
*628 FILLER_0_23_113
*629 FILLER_0_23_125
*630 FILLER_0_23_137
*631 FILLER_0_23_149
*632 FILLER_0_23_15
*633 FILLER_0_23_161
*634 FILLER_0_23_167
*635 FILLER_0_23_169
*636 FILLER_0_23_181
*637 FILLER_0_23_193
*638 FILLER_0_23_205
*639 FILLER_0_23_217
*640 FILLER_0_23_223
*641 FILLER_0_23_225
*642 FILLER_0_23_237
*643 FILLER_0_23_249
*644 FILLER_0_23_261
*645 FILLER_0_23_27
*646 FILLER_0_23_273
*647 FILLER_0_23_279
*648 FILLER_0_23_281
*649 FILLER_0_23_293
*650 FILLER_0_23_3
*651 FILLER_0_23_305
*652 FILLER_0_23_317
*653 FILLER_0_23_329
*654 FILLER_0_23_39
*655 FILLER_0_23_51
*656 FILLER_0_23_55
*657 FILLER_0_23_57
*658 FILLER_0_23_69
*659 FILLER_0_23_81
*660 FILLER_0_23_93
*661 FILLER_0_24_109
*662 FILLER_0_24_121
*663 FILLER_0_24_133
*664 FILLER_0_24_139
*665 FILLER_0_24_141
*666 FILLER_0_24_15
*667 FILLER_0_24_153
*668 FILLER_0_24_165
*669 FILLER_0_24_177
*670 FILLER_0_24_189
*671 FILLER_0_24_195
*672 FILLER_0_24_197
*673 FILLER_0_24_209
*674 FILLER_0_24_221
*675 FILLER_0_24_233
*676 FILLER_0_24_245
*677 FILLER_0_24_251
*678 FILLER_0_24_253
*679 FILLER_0_24_265
*680 FILLER_0_24_27
*681 FILLER_0_24_277
*682 FILLER_0_24_289
*683 FILLER_0_24_29
*684 FILLER_0_24_3
*685 FILLER_0_24_301
*686 FILLER_0_24_307
*687 FILLER_0_24_309
*688 FILLER_0_24_321
*689 FILLER_0_24_333
*690 FILLER_0_24_41
*691 FILLER_0_24_53
*692 FILLER_0_24_65
*693 FILLER_0_24_77
*694 FILLER_0_24_83
*695 FILLER_0_24_85
*696 FILLER_0_24_97
*697 FILLER_0_25_105
*698 FILLER_0_25_111
*699 FILLER_0_25_113
*700 FILLER_0_25_125
*701 FILLER_0_25_137
*702 FILLER_0_25_149
*703 FILLER_0_25_15
*704 FILLER_0_25_161
*705 FILLER_0_25_167
*706 FILLER_0_25_169
*707 FILLER_0_25_181
*708 FILLER_0_25_193
*709 FILLER_0_25_205
*710 FILLER_0_25_217
*711 FILLER_0_25_223
*712 FILLER_0_25_225
*713 FILLER_0_25_237
*714 FILLER_0_25_249
*715 FILLER_0_25_261
*716 FILLER_0_25_27
*717 FILLER_0_25_273
*718 FILLER_0_25_279
*719 FILLER_0_25_281
*720 FILLER_0_25_293
*721 FILLER_0_25_3
*722 FILLER_0_25_305
*723 FILLER_0_25_317
*724 FILLER_0_25_329
*725 FILLER_0_25_39
*726 FILLER_0_25_51
*727 FILLER_0_25_55
*728 FILLER_0_25_57
*729 FILLER_0_25_69
*730 FILLER_0_25_81
*731 FILLER_0_25_93
*732 FILLER_0_26_109
*733 FILLER_0_26_121
*734 FILLER_0_26_133
*735 FILLER_0_26_139
*736 FILLER_0_26_141
*737 FILLER_0_26_15
*738 FILLER_0_26_153
*739 FILLER_0_26_165
*740 FILLER_0_26_177
*741 FILLER_0_26_189
*742 FILLER_0_26_195
*743 FILLER_0_26_197
*744 FILLER_0_26_209
*745 FILLER_0_26_221
*746 FILLER_0_26_233
*747 FILLER_0_26_245
*748 FILLER_0_26_251
*749 FILLER_0_26_253
*750 FILLER_0_26_265
*751 FILLER_0_26_27
*752 FILLER_0_26_277
*753 FILLER_0_26_289
*754 FILLER_0_26_29
*755 FILLER_0_26_3
*756 FILLER_0_26_301
*757 FILLER_0_26_307
*758 FILLER_0_26_309
*759 FILLER_0_26_321
*760 FILLER_0_26_333
*761 FILLER_0_26_41
*762 FILLER_0_26_53
*763 FILLER_0_26_65
*764 FILLER_0_26_77
*765 FILLER_0_26_83
*766 FILLER_0_26_85
*767 FILLER_0_26_97
*768 FILLER_0_27_105
*769 FILLER_0_27_111
*770 FILLER_0_27_113
*771 FILLER_0_27_125
*772 FILLER_0_27_137
*773 FILLER_0_27_149
*774 FILLER_0_27_15
*775 FILLER_0_27_161
*776 FILLER_0_27_167
*777 FILLER_0_27_169
*778 FILLER_0_27_181
*779 FILLER_0_27_193
*780 FILLER_0_27_205
*781 FILLER_0_27_217
*782 FILLER_0_27_223
*783 FILLER_0_27_225
*784 FILLER_0_27_237
*785 FILLER_0_27_249
*786 FILLER_0_27_261
*787 FILLER_0_27_27
*788 FILLER_0_27_273
*789 FILLER_0_27_279
*790 FILLER_0_27_281
*791 FILLER_0_27_293
*792 FILLER_0_27_3
*793 FILLER_0_27_305
*794 FILLER_0_27_317
*795 FILLER_0_27_329
*796 FILLER_0_27_39
*797 FILLER_0_27_51
*798 FILLER_0_27_55
*799 FILLER_0_27_57
*800 FILLER_0_27_69
*801 FILLER_0_27_81
*802 FILLER_0_27_93
*803 FILLER_0_28_109
*804 FILLER_0_28_121
*805 FILLER_0_28_133
*806 FILLER_0_28_139
*807 FILLER_0_28_141
*808 FILLER_0_28_15
*809 FILLER_0_28_153
*810 FILLER_0_28_165
*811 FILLER_0_28_177
*812 FILLER_0_28_189
*813 FILLER_0_28_195
*814 FILLER_0_28_197
*815 FILLER_0_28_209
*816 FILLER_0_28_221
*817 FILLER_0_28_233
*818 FILLER_0_28_245
*819 FILLER_0_28_251
*820 FILLER_0_28_253
*821 FILLER_0_28_265
*822 FILLER_0_28_27
*823 FILLER_0_28_277
*824 FILLER_0_28_289
*825 FILLER_0_28_29
*826 FILLER_0_28_3
*827 FILLER_0_28_301
*828 FILLER_0_28_307
*829 FILLER_0_28_309
*830 FILLER_0_28_321
*831 FILLER_0_28_333
*832 FILLER_0_28_41
*833 FILLER_0_28_53
*834 FILLER_0_28_65
*835 FILLER_0_28_77
*836 FILLER_0_28_83
*837 FILLER_0_28_85
*838 FILLER_0_28_97
*839 FILLER_0_29_105
*840 FILLER_0_29_111
*841 FILLER_0_29_113
*842 FILLER_0_29_125
*843 FILLER_0_29_137
*844 FILLER_0_29_149
*845 FILLER_0_29_15
*846 FILLER_0_29_161
*847 FILLER_0_29_167
*848 FILLER_0_29_169
*849 FILLER_0_29_181
*850 FILLER_0_29_193
*851 FILLER_0_29_205
*852 FILLER_0_29_217
*853 FILLER_0_29_223
*854 FILLER_0_29_225
*855 FILLER_0_29_237
*856 FILLER_0_29_249
*857 FILLER_0_29_261
*858 FILLER_0_29_27
*859 FILLER_0_29_273
*860 FILLER_0_29_279
*861 FILLER_0_29_281
*862 FILLER_0_29_293
*863 FILLER_0_29_3
*864 FILLER_0_29_305
*865 FILLER_0_29_317
*866 FILLER_0_29_329
*867 FILLER_0_29_39
*868 FILLER_0_29_51
*869 FILLER_0_29_55
*870 FILLER_0_29_57
*871 FILLER_0_29_69
*872 FILLER_0_29_81
*873 FILLER_0_29_93
*874 FILLER_0_2_109
*875 FILLER_0_2_121
*876 FILLER_0_2_133
*877 FILLER_0_2_139
*878 FILLER_0_2_141
*879 FILLER_0_2_15
*880 FILLER_0_2_153
*881 FILLER_0_2_165
*882 FILLER_0_2_177
*883 FILLER_0_2_189
*884 FILLER_0_2_195
*885 FILLER_0_2_197
*886 FILLER_0_2_209
*887 FILLER_0_2_221
*888 FILLER_0_2_233
*889 FILLER_0_2_245
*890 FILLER_0_2_251
*891 FILLER_0_2_253
*892 FILLER_0_2_265
*893 FILLER_0_2_27
*894 FILLER_0_2_277
*895 FILLER_0_2_289
*896 FILLER_0_2_29
*897 FILLER_0_2_3
*898 FILLER_0_2_301
*899 FILLER_0_2_307
*900 FILLER_0_2_309
*901 FILLER_0_2_321
*902 FILLER_0_2_333
*903 FILLER_0_2_41
*904 FILLER_0_2_53
*905 FILLER_0_2_65
*906 FILLER_0_2_77
*907 FILLER_0_2_83
*908 FILLER_0_2_85
*909 FILLER_0_2_97
*910 FILLER_0_30_109
*911 FILLER_0_30_121
*912 FILLER_0_30_133
*913 FILLER_0_30_139
*914 FILLER_0_30_141
*915 FILLER_0_30_15
*916 FILLER_0_30_153
*917 FILLER_0_30_165
*918 FILLER_0_30_177
*919 FILLER_0_30_189
*920 FILLER_0_30_195
*921 FILLER_0_30_197
*922 FILLER_0_30_209
*923 FILLER_0_30_221
*924 FILLER_0_30_233
*925 FILLER_0_30_245
*926 FILLER_0_30_251
*927 FILLER_0_30_253
*928 FILLER_0_30_265
*929 FILLER_0_30_27
*930 FILLER_0_30_277
*931 FILLER_0_30_289
*932 FILLER_0_30_29
*933 FILLER_0_30_3
*934 FILLER_0_30_301
*935 FILLER_0_30_307
*936 FILLER_0_30_309
*937 FILLER_0_30_321
*938 FILLER_0_30_333
*939 FILLER_0_30_41
*940 FILLER_0_30_53
*941 FILLER_0_30_65
*942 FILLER_0_30_77
*943 FILLER_0_30_83
*944 FILLER_0_30_85
*945 FILLER_0_30_97
*946 FILLER_0_31_105
*947 FILLER_0_31_111
*948 FILLER_0_31_113
*949 FILLER_0_31_125
*950 FILLER_0_31_137
*951 FILLER_0_31_149
*952 FILLER_0_31_15
*953 FILLER_0_31_161
*954 FILLER_0_31_167
*955 FILLER_0_31_169
*956 FILLER_0_31_181
*957 FILLER_0_31_193
*958 FILLER_0_31_205
*959 FILLER_0_31_217
*960 FILLER_0_31_223
*961 FILLER_0_31_225
*962 FILLER_0_31_237
*963 FILLER_0_31_249
*964 FILLER_0_31_261
*965 FILLER_0_31_27
*966 FILLER_0_31_273
*967 FILLER_0_31_279
*968 FILLER_0_31_281
*969 FILLER_0_31_293
*970 FILLER_0_31_3
*971 FILLER_0_31_305
*972 FILLER_0_31_317
*973 FILLER_0_31_329
*974 FILLER_0_31_39
*975 FILLER_0_31_51
*976 FILLER_0_31_55
*977 FILLER_0_31_57
*978 FILLER_0_31_69
*979 FILLER_0_31_81
*980 FILLER_0_31_93
*981 FILLER_0_32_109
*982 FILLER_0_32_121
*983 FILLER_0_32_129
*984 FILLER_0_32_138
*985 FILLER_0_32_144
*986 FILLER_0_32_15
*987 FILLER_0_32_152
*988 FILLER_0_32_161
*989 FILLER_0_32_173
*990 FILLER_0_32_185
*991 FILLER_0_32_193
*992 FILLER_0_32_197
*993 FILLER_0_32_209
*994 FILLER_0_32_221
*995 FILLER_0_32_233
*996 FILLER_0_32_245
*997 FILLER_0_32_251
*998 FILLER_0_32_253
*999 FILLER_0_32_265
*1000 FILLER_0_32_27
*1001 FILLER_0_32_277
*1002 FILLER_0_32_289
*1003 FILLER_0_32_29
*1004 FILLER_0_32_3
*1005 FILLER_0_32_301
*1006 FILLER_0_32_307
*1007 FILLER_0_32_309
*1008 FILLER_0_32_321
*1009 FILLER_0_32_333
*1010 FILLER_0_32_41
*1011 FILLER_0_32_53
*1012 FILLER_0_32_65
*1013 FILLER_0_32_77
*1014 FILLER_0_32_83
*1015 FILLER_0_32_85
*1016 FILLER_0_32_97
*1017 FILLER_0_33_105
*1018 FILLER_0_33_111
*1019 FILLER_0_33_129
*1020 FILLER_0_33_15
*1021 FILLER_0_33_150
*1022 FILLER_0_33_155
*1023 FILLER_0_33_167
*1024 FILLER_0_33_172
*1025 FILLER_0_33_184
*1026 FILLER_0_33_196
*1027 FILLER_0_33_208
*1028 FILLER_0_33_220
*1029 FILLER_0_33_225
*1030 FILLER_0_33_237
*1031 FILLER_0_33_249
*1032 FILLER_0_33_261
*1033 FILLER_0_33_27
*1034 FILLER_0_33_273
*1035 FILLER_0_33_279
*1036 FILLER_0_33_281
*1037 FILLER_0_33_293
*1038 FILLER_0_33_3
*1039 FILLER_0_33_305
*1040 FILLER_0_33_317
*1041 FILLER_0_33_329
*1042 FILLER_0_33_39
*1043 FILLER_0_33_51
*1044 FILLER_0_33_55
*1045 FILLER_0_33_57
*1046 FILLER_0_33_69
*1047 FILLER_0_33_81
*1048 FILLER_0_33_93
*1049 FILLER_0_34_109
*1050 FILLER_0_34_121
*1051 FILLER_0_34_129
*1052 FILLER_0_34_141
*1053 FILLER_0_34_147
*1054 FILLER_0_34_15
*1055 FILLER_0_34_168
*1056 FILLER_0_34_187
*1057 FILLER_0_34_195
*1058 FILLER_0_34_214
*1059 FILLER_0_34_218
*1060 FILLER_0_34_230
*1061 FILLER_0_34_242
*1062 FILLER_0_34_250
*1063 FILLER_0_34_253
*1064 FILLER_0_34_265
*1065 FILLER_0_34_27
*1066 FILLER_0_34_277
*1067 FILLER_0_34_289
*1068 FILLER_0_34_29
*1069 FILLER_0_34_3
*1070 FILLER_0_34_301
*1071 FILLER_0_34_307
*1072 FILLER_0_34_309
*1073 FILLER_0_34_321
*1074 FILLER_0_34_333
*1075 FILLER_0_34_41
*1076 FILLER_0_34_53
*1077 FILLER_0_34_65
*1078 FILLER_0_34_77
*1079 FILLER_0_34_83
*1080 FILLER_0_34_85
*1081 FILLER_0_34_97
*1082 FILLER_0_35_105
*1083 FILLER_0_35_111
*1084 FILLER_0_35_113
*1085 FILLER_0_35_134
*1086 FILLER_0_35_15
*1087 FILLER_0_35_166
*1088 FILLER_0_35_223
*1089 FILLER_0_35_225
*1090 FILLER_0_35_237
*1091 FILLER_0_35_249
*1092 FILLER_0_35_261
*1093 FILLER_0_35_27
*1094 FILLER_0_35_273
*1095 FILLER_0_35_279
*1096 FILLER_0_35_281
*1097 FILLER_0_35_293
*1098 FILLER_0_35_3
*1099 FILLER_0_35_305
*1100 FILLER_0_35_317
*1101 FILLER_0_35_329
*1102 FILLER_0_35_39
*1103 FILLER_0_35_51
*1104 FILLER_0_35_55
*1105 FILLER_0_35_57
*1106 FILLER_0_35_69
*1107 FILLER_0_35_81
*1108 FILLER_0_35_93
*1109 FILLER_0_36_109
*1110 FILLER_0_36_131
*1111 FILLER_0_36_149
*1112 FILLER_0_36_15
*1113 FILLER_0_36_200
*1114 FILLER_0_36_222
*1115 FILLER_0_36_234
*1116 FILLER_0_36_246
*1117 FILLER_0_36_253
*1118 FILLER_0_36_265
*1119 FILLER_0_36_27
*1120 FILLER_0_36_277
*1121 FILLER_0_36_289
*1122 FILLER_0_36_29
*1123 FILLER_0_36_3
*1124 FILLER_0_36_301
*1125 FILLER_0_36_307
*1126 FILLER_0_36_309
*1127 FILLER_0_36_321
*1128 FILLER_0_36_333
*1129 FILLER_0_36_41
*1130 FILLER_0_36_53
*1131 FILLER_0_36_65
*1132 FILLER_0_36_77
*1133 FILLER_0_36_83
*1134 FILLER_0_36_85
*1135 FILLER_0_36_97
*1136 FILLER_0_37_105
*1137 FILLER_0_37_111
*1138 FILLER_0_37_113
*1139 FILLER_0_37_140
*1140 FILLER_0_37_15
*1141 FILLER_0_37_161
*1142 FILLER_0_37_167
*1143 FILLER_0_37_169
*1144 FILLER_0_37_221
*1145 FILLER_0_37_225
*1146 FILLER_0_37_237
*1147 FILLER_0_37_249
*1148 FILLER_0_37_261
*1149 FILLER_0_37_27
*1150 FILLER_0_37_273
*1151 FILLER_0_37_279
*1152 FILLER_0_37_281
*1153 FILLER_0_37_293
*1154 FILLER_0_37_3
*1155 FILLER_0_37_305
*1156 FILLER_0_37_317
*1157 FILLER_0_37_329
*1158 FILLER_0_37_39
*1159 FILLER_0_37_51
*1160 FILLER_0_37_55
*1161 FILLER_0_37_57
*1162 FILLER_0_37_69
*1163 FILLER_0_37_81
*1164 FILLER_0_37_93
*1165 FILLER_0_38_10
*1166 FILLER_0_38_102
*1167 FILLER_0_38_106
*1168 FILLER_0_38_110
*1169 FILLER_0_38_127
*1170 FILLER_0_38_133
*1171 FILLER_0_38_138
*1172 FILLER_0_38_14
*1173 FILLER_0_38_145
*1174 FILLER_0_38_166
*1175 FILLER_0_38_175
*1176 FILLER_0_38_18
*1177 FILLER_0_38_182
*1178 FILLER_0_38_186
*1179 FILLER_0_38_191
*1180 FILLER_0_38_195
*1181 FILLER_0_38_197
*1182 FILLER_0_38_208
*1183 FILLER_0_38_218
*1184 FILLER_0_38_22
*1185 FILLER_0_38_225
*1186 FILLER_0_38_237
*1187 FILLER_0_38_249
*1188 FILLER_0_38_253
*1189 FILLER_0_38_265
*1190 FILLER_0_38_277
*1191 FILLER_0_38_281
*1192 FILLER_0_38_293
*1193 FILLER_0_38_305
*1194 FILLER_0_38_309
*1195 FILLER_0_38_318
*1196 FILLER_0_38_32
*1197 FILLER_0_38_330
*1198 FILLER_0_38_334
*1199 FILLER_0_38_38
*1200 FILLER_0_38_42
*1201 FILLER_0_38_46
*1202 FILLER_0_38_50
*1203 FILLER_0_38_54
*1204 FILLER_0_38_57
*1205 FILLER_0_38_6
*1206 FILLER_0_38_62
*1207 FILLER_0_38_66
*1208 FILLER_0_38_70
*1209 FILLER_0_38_74
*1210 FILLER_0_38_78
*1211 FILLER_0_38_88
*1212 FILLER_0_38_94
*1213 FILLER_0_38_98
*1214 FILLER_0_3_105
*1215 FILLER_0_3_111
*1216 FILLER_0_3_113
*1217 FILLER_0_3_125
*1218 FILLER_0_3_137
*1219 FILLER_0_3_149
*1220 FILLER_0_3_15
*1221 FILLER_0_3_161
*1222 FILLER_0_3_167
*1223 FILLER_0_3_169
*1224 FILLER_0_3_181
*1225 FILLER_0_3_193
*1226 FILLER_0_3_205
*1227 FILLER_0_3_217
*1228 FILLER_0_3_223
*1229 FILLER_0_3_225
*1230 FILLER_0_3_237
*1231 FILLER_0_3_249
*1232 FILLER_0_3_261
*1233 FILLER_0_3_27
*1234 FILLER_0_3_273
*1235 FILLER_0_3_279
*1236 FILLER_0_3_281
*1237 FILLER_0_3_293
*1238 FILLER_0_3_3
*1239 FILLER_0_3_305
*1240 FILLER_0_3_317
*1241 FILLER_0_3_329
*1242 FILLER_0_3_39
*1243 FILLER_0_3_51
*1244 FILLER_0_3_55
*1245 FILLER_0_3_57
*1246 FILLER_0_3_69
*1247 FILLER_0_3_81
*1248 FILLER_0_3_93
*1249 FILLER_0_4_109
*1250 FILLER_0_4_121
*1251 FILLER_0_4_133
*1252 FILLER_0_4_139
*1253 FILLER_0_4_141
*1254 FILLER_0_4_15
*1255 FILLER_0_4_153
*1256 FILLER_0_4_165
*1257 FILLER_0_4_177
*1258 FILLER_0_4_189
*1259 FILLER_0_4_195
*1260 FILLER_0_4_197
*1261 FILLER_0_4_209
*1262 FILLER_0_4_221
*1263 FILLER_0_4_233
*1264 FILLER_0_4_245
*1265 FILLER_0_4_251
*1266 FILLER_0_4_253
*1267 FILLER_0_4_265
*1268 FILLER_0_4_27
*1269 FILLER_0_4_277
*1270 FILLER_0_4_289
*1271 FILLER_0_4_29
*1272 FILLER_0_4_3
*1273 FILLER_0_4_301
*1274 FILLER_0_4_307
*1275 FILLER_0_4_309
*1276 FILLER_0_4_321
*1277 FILLER_0_4_333
*1278 FILLER_0_4_41
*1279 FILLER_0_4_53
*1280 FILLER_0_4_65
*1281 FILLER_0_4_77
*1282 FILLER_0_4_83
*1283 FILLER_0_4_85
*1284 FILLER_0_4_97
*1285 FILLER_0_5_105
*1286 FILLER_0_5_111
*1287 FILLER_0_5_113
*1288 FILLER_0_5_125
*1289 FILLER_0_5_137
*1290 FILLER_0_5_149
*1291 FILLER_0_5_15
*1292 FILLER_0_5_161
*1293 FILLER_0_5_167
*1294 FILLER_0_5_169
*1295 FILLER_0_5_181
*1296 FILLER_0_5_193
*1297 FILLER_0_5_205
*1298 FILLER_0_5_217
*1299 FILLER_0_5_223
*1300 FILLER_0_5_225
*1301 FILLER_0_5_237
*1302 FILLER_0_5_249
*1303 FILLER_0_5_261
*1304 FILLER_0_5_27
*1305 FILLER_0_5_273
*1306 FILLER_0_5_279
*1307 FILLER_0_5_281
*1308 FILLER_0_5_293
*1309 FILLER_0_5_3
*1310 FILLER_0_5_305
*1311 FILLER_0_5_317
*1312 FILLER_0_5_329
*1313 FILLER_0_5_39
*1314 FILLER_0_5_51
*1315 FILLER_0_5_55
*1316 FILLER_0_5_57
*1317 FILLER_0_5_69
*1318 FILLER_0_5_81
*1319 FILLER_0_5_93
*1320 FILLER_0_6_109
*1321 FILLER_0_6_121
*1322 FILLER_0_6_133
*1323 FILLER_0_6_139
*1324 FILLER_0_6_141
*1325 FILLER_0_6_15
*1326 FILLER_0_6_153
*1327 FILLER_0_6_165
*1328 FILLER_0_6_177
*1329 FILLER_0_6_189
*1330 FILLER_0_6_195
*1331 FILLER_0_6_197
*1332 FILLER_0_6_209
*1333 FILLER_0_6_221
*1334 FILLER_0_6_233
*1335 FILLER_0_6_245
*1336 FILLER_0_6_251
*1337 FILLER_0_6_253
*1338 FILLER_0_6_265
*1339 FILLER_0_6_27
*1340 FILLER_0_6_277
*1341 FILLER_0_6_289
*1342 FILLER_0_6_29
*1343 FILLER_0_6_3
*1344 FILLER_0_6_301
*1345 FILLER_0_6_307
*1346 FILLER_0_6_309
*1347 FILLER_0_6_321
*1348 FILLER_0_6_333
*1349 FILLER_0_6_41
*1350 FILLER_0_6_53
*1351 FILLER_0_6_65
*1352 FILLER_0_6_77
*1353 FILLER_0_6_83
*1354 FILLER_0_6_85
*1355 FILLER_0_6_97
*1356 FILLER_0_7_105
*1357 FILLER_0_7_111
*1358 FILLER_0_7_113
*1359 FILLER_0_7_125
*1360 FILLER_0_7_137
*1361 FILLER_0_7_149
*1362 FILLER_0_7_15
*1363 FILLER_0_7_161
*1364 FILLER_0_7_167
*1365 FILLER_0_7_169
*1366 FILLER_0_7_181
*1367 FILLER_0_7_193
*1368 FILLER_0_7_205
*1369 FILLER_0_7_217
*1370 FILLER_0_7_223
*1371 FILLER_0_7_225
*1372 FILLER_0_7_237
*1373 FILLER_0_7_249
*1374 FILLER_0_7_261
*1375 FILLER_0_7_27
*1376 FILLER_0_7_273
*1377 FILLER_0_7_279
*1378 FILLER_0_7_281
*1379 FILLER_0_7_293
*1380 FILLER_0_7_3
*1381 FILLER_0_7_305
*1382 FILLER_0_7_317
*1383 FILLER_0_7_329
*1384 FILLER_0_7_39
*1385 FILLER_0_7_51
*1386 FILLER_0_7_55
*1387 FILLER_0_7_57
*1388 FILLER_0_7_69
*1389 FILLER_0_7_81
*1390 FILLER_0_7_93
*1391 FILLER_0_8_109
*1392 FILLER_0_8_121
*1393 FILLER_0_8_133
*1394 FILLER_0_8_139
*1395 FILLER_0_8_141
*1396 FILLER_0_8_15
*1397 FILLER_0_8_153
*1398 FILLER_0_8_165
*1399 FILLER_0_8_177
*1400 FILLER_0_8_189
*1401 FILLER_0_8_195
*1402 FILLER_0_8_197
*1403 FILLER_0_8_209
*1404 FILLER_0_8_221
*1405 FILLER_0_8_233
*1406 FILLER_0_8_245
*1407 FILLER_0_8_251
*1408 FILLER_0_8_253
*1409 FILLER_0_8_265
*1410 FILLER_0_8_27
*1411 FILLER_0_8_277
*1412 FILLER_0_8_289
*1413 FILLER_0_8_29
*1414 FILLER_0_8_3
*1415 FILLER_0_8_301
*1416 FILLER_0_8_307
*1417 FILLER_0_8_309
*1418 FILLER_0_8_321
*1419 FILLER_0_8_333
*1420 FILLER_0_8_41
*1421 FILLER_0_8_53
*1422 FILLER_0_8_65
*1423 FILLER_0_8_77
*1424 FILLER_0_8_83
*1425 FILLER_0_8_85
*1426 FILLER_0_8_97
*1427 FILLER_0_9_105
*1428 FILLER_0_9_111
*1429 FILLER_0_9_113
*1430 FILLER_0_9_125
*1431 FILLER_0_9_137
*1432 FILLER_0_9_149
*1433 FILLER_0_9_15
*1434 FILLER_0_9_161
*1435 FILLER_0_9_167
*1436 FILLER_0_9_169
*1437 FILLER_0_9_181
*1438 FILLER_0_9_193
*1439 FILLER_0_9_205
*1440 FILLER_0_9_217
*1441 FILLER_0_9_223
*1442 FILLER_0_9_225
*1443 FILLER_0_9_237
*1444 FILLER_0_9_249
*1445 FILLER_0_9_261
*1446 FILLER_0_9_27
*1447 FILLER_0_9_273
*1448 FILLER_0_9_279
*1449 FILLER_0_9_281
*1450 FILLER_0_9_293
*1451 FILLER_0_9_3
*1452 FILLER_0_9_305
*1453 FILLER_0_9_317
*1454 FILLER_0_9_329
*1455 FILLER_0_9_39
*1456 FILLER_0_9_51
*1457 FILLER_0_9_55
*1458 FILLER_0_9_57
*1459 FILLER_0_9_69
*1460 FILLER_0_9_81
*1461 FILLER_0_9_93
*1462 PHY_EDGE_ROW_0_Left_39
*1463 PHY_EDGE_ROW_0_Right_0
*1464 PHY_EDGE_ROW_10_Left_49
*1465 PHY_EDGE_ROW_10_Right_10
*1466 PHY_EDGE_ROW_11_Left_50
*1467 PHY_EDGE_ROW_11_Right_11
*1468 PHY_EDGE_ROW_12_Left_51