*SPEF "ieee 1481-1999"
*DESIGN "tt_um_minibyte"
*DATE "21:40:38 Sunday April 14, 2024"
*VENDOR "The OpenROAD Project"
*PROGRAM "OpenROAD"
*VERSION "0889970d1790a2617e69f253221b8bd7626e51dc"
*DESIGN_FLOW "NAME_SCOPE LOCAL" "PIN_CAP NONE"
*DIVIDER /
*DELIMITER :
*BUS_DELIMITER []
*T_UNIT 1 NS
*C_UNIT 1 PF
*R_UNIT 1 OHM
*L_UNIT 1 HENRY

*NAME_MAP
*3 clk
*4 ena
*5 rst_n
*6 ui_in[0]
*7 ui_in[1]
*8 ui_in[2]
*9 ui_in[3]
*10 ui_in[4]
*11 ui_in[5]
*12 ui_in[6]
*13 ui_in[7]
*14 uio_in[0]
*15 uio_in[1]
*16 uio_in[2]
*17 uio_in[3]
*18 uio_in[4]
*19 uio_in[5]
*20 uio_in[6]
*21 uio_in[7]
*22 uio_oe[0]
*23 uio_oe[1]
*24 uio_oe[2]
*25 uio_oe[3]
*26 uio_oe[4]
*27 uio_oe[5]
*28 uio_oe[6]
*29 uio_oe[7]
*30 uio_out[0]
*31 uio_out[1]
*32 uio_out[2]
*33 uio_out[3]
*34 uio_out[4]
*35 uio_out[5]
*36 uio_out[6]
*37 uio_out[7]
*38 uo_out[0]
*39 uo_out[1]
*40 uo_out[2]
*41 uo_out[3]
*42 uo_out[4]
*43 uo_out[5]
*44 uo_out[6]
*45 uo_out[7]
*46 _0000_
*47 _0001_
*48 _0002_
*49 _0003_
*50 _0004_
*51 _0005_
*52 _0006_
*53 _0007_
*54 _0008_
*55 _0009_
*56 _0010_
*57 _0011_
*58 _0012_
*59 _0013_
*60 _0014_
*61 _0015_
*62 _0016_
*63 _0017_
*64 _0018_
*65 _0019_
*66 _0020_
*67 _0021_
*68 _0022_
*69 _0023_
*70 _0024_
*71 _0025_
*72 _0026_
*73 _0027_
*74 _0028_
*75 _0029_
*76 _0030_
*77 _0031_
*78 _0032_
*79 _0033_
*80 _0034_
*81 _0035_
*82 _0036_
*83 _0037_
*84 _0038_
*85 _0039_
*86 _0040_
*87 _0041_
*88 _0042_
*89 _0043_
*90 _0044_
*91 _0045_
*92 _0046_
*93 _0047_
*94 _0048_
*95 _0049_
*96 _0050_
*97 _0051_
*98 _0052_
*99 _0053_
*100 _0054_
*101 _0055_
*102 _0056_
*103 _0057_
*104 _0058_
*105 _0059_
*106 _0060_
*107 _0061_
*108 _0062_
*109 _0063_
*110 _0064_
*111 _0065_
*112 _0066_
*113 _0067_
*114 _0068_
*115 _0069_
*116 _0070_
*117 _0071_
*118 _0072_
*119 _0073_
*120 _0074_
*121 _0075_
*122 _0076_
*123 _0077_
*124 _0078_
*125 _0079_
*126 _0080_
*127 _0081_
*128 _0082_
*129 _0083_
*130 _0084_
*131 _0085_
*132 _0086_
*133 _0087_
*134 _0088_
*135 _0089_
*136 _0090_
*137 _0091_
*138 _0092_
*139 _0093_
*140 _0094_
*141 _0095_
*142 _0096_
*143 _0097_
*144 _0098_
*145 _0099_
*146 _0100_
*147 _0101_
*148 _0102_
*149 _0103_
*150 _0104_
*151 _0105_
*152 _0106_
*153 _0107_
*154 _0108_
*155 _0109_
*156 _0110_
*157 _0111_
*158 _0112_
*159 _0113_
*160 _0114_
*161 _0115_
*162 _0116_
*163 _0117_
*164 _0118_
*165 _0119_
*166 _0120_
*167 _0121_
*168 _0122_
*169 _0123_
*170 _0124_
*171 _0125_
*172 _0126_
*173 _0127_
*174 _0128_
*175 _0129_
*176 _0130_
*177 _0131_
*178 _0132_
*179 _0133_
*180 _0134_
*181 _0135_
*182 _0136_
*183 _0137_
*184 _0138_
*185 _0139_
*186 _0140_
*187 _0141_
*188 _0142_
*189 _0143_
*190 _0144_
*191 _0145_
*192 _0146_
*193 _0147_
*194 _0148_
*195 _0149_
*196 _0150_
*197 _0151_
*198 _0152_
*199 _0153_
*200 _0154_
*201 _0155_
*202 _0156_
*203 _0157_
*204 _0158_
*205 _0159_
*206 _0160_
*207 _0161_
*208 _0162_
*209 _0163_
*210 _0164_
*211 _0165_
*212 _0166_
*213 _0167_
*214 _0168_
*215 _0169_
*216 _0170_
*217 _0171_
*218 _0172_
*219 _0173_
*220 _0174_
*221 _0175_
*222 _0176_
*223 _0177_
*224 _0178_
*225 _0179_
*226 _0180_
*227 _0181_
*228 _0182_
*229 _0183_
*230 _0184_
*231 _0185_
*232 _0186_
*233 _0187_
*234 _0188_
*235 _0189_
*236 _0190_
*237 _0191_
*238 _0192_
*239 _0193_
*240 _0194_
*241 _0195_
*242 _0196_
*243 _0197_
*244 _0198_
*245 _0199_
*246 _0200_
*247 _0201_
*248 _0202_
*249 _0203_
*250 _0204_
*251 _0205_
*252 _0206_
*253 _0207_
*254 _0208_
*255 _0209_
*256 _0210_
*257 _0211_
*258 _0212_
*259 _0213_
*260 _0214_
*261 _0215_
*262 _0216_
*263 _0217_
*264 _0218_
*265 _0219_
*266 _0220_
*267 _0221_
*268 _0222_
*269 _0223_
*270 _0224_
*271 _0225_
*272 _0226_
*273 _0227_
*274 _0228_
*275 _0229_
*276 _0230_
*277 _0231_
*278 _0232_
*279 _0233_
*280 _0234_
*281 _0235_
*282 _0236_
*283 _0237_
*284 _0238_
*285 _0239_
*286 _0240_
*287 _0241_
*288 _0242_
*289 _0243_
*290 _0244_
*291 _0245_
*292 _0246_
*293 _0247_
*294 _0248_
*295 _0249_
*296 _0250_
*297 _0251_
*298 _0252_
*299 _0253_
*300 _0254_
*301 _0255_
*302 _0256_
*303 _0257_
*304 _0258_
*305 _0259_
*306 _0260_
*307 _0261_
*308 _0262_
*309 _0263_
*310 _0264_
*311 _0265_
*312 _0266_
*313 _0267_
*314 _0268_
*315 _0269_
*316 _0270_
*317 _0271_
*318 _0272_
*319 _0273_
*320 _0274_
*321 _0275_
*322 _0276_
*323 _0277_
*324 _0278_
*325 _0279_
*326 _0280_
*327 _0281_
*328 _0282_
*329 _0283_
*330 _0284_
*331 _0285_
*332 _0286_
*333 _0287_
*334 _0288_
*335 _0289_
*336 _0290_
*337 _0291_
*338 _0292_
*339 _0293_
*340 _0294_
*341 _0295_
*342 _0296_
*343 _0297_
*344 _0298_
*345 _0299_
*346 _0300_
*347 _0301_
*348 _0302_
*349 _0303_
*350 _0304_
*351 _0305_
*352 _0306_
*353 _0307_
*354 _0308_
*355 _0309_
*356 _0310_
*357 _0311_
*358 _0312_
*359 _0313_
*360 _0314_
*361 _0315_
*362 _0316_
*363 _0317_
*364 _0318_
*365 _0319_
*366 _0320_
*367 _0321_
*368 _0322_
*369 _0323_
*370 _0324_
*371 _0325_
*372 _0326_
*373 _0327_
*374 _0328_
*375 _0329_
*376 _0330_
*377 _0331_
*378 _0332_
*379 _0333_
*380 _0334_
*381 _0335_
*382 _0336_
*383 _0337_
*384 _0338_
*385 _0339_
*386 _0340_
*387 _0341_
*388 _0342_
*389 _0343_
*390 _0344_
*391 _0345_
*392 _0346_
*393 _0347_
*394 _0348_
*395 _0349_
*396 _0350_
*397 _0351_
*398 _0352_
*399 _0353_
*400 _0354_
*401 _0355_
*402 _0356_
*403 _0357_
*404 _0358_
*405 _0359_
*406 _0360_
*407 _0361_
*408 _0362_
*409 _0363_
*410 _0364_
*411 _0365_
*412 _0366_
*413 _0367_
*414 _0368_
*415 _0369_
*416 _0370_
*417 _0371_
*418 _0372_
*419 _0373_
*420 _0374_
*421 _0375_
*422 _0376_
*423 _0377_
*424 _0378_
*425 _0379_
*426 _0380_
*427 _0381_
*428 _0382_
*429 _0383_
*430 _0384_
*431 _0385_
*432 _0386_
*433 _0387_
*434 _0388_
*435 _0389_
*436 _0390_
*437 _0391_
*438 _0392_
*439 _0393_
*440 _0394_
*441 _0395_
*442 _0396_
*443 _0397_
*444 _0398_
*445 _0399_
*446 _0400_
*447 _0401_
*448 _0402_
*449 _0403_
*450 _0404_
*451 _0405_
*452 _0406_
*453 _0407_
*454 _0408_
*455 _0409_
*456 _0410_
*457 _0411_
*458 _0412_
*459 _0413_
*460 _0414_
*461 _0415_
*462 _0416_
*463 _0417_
*464 _0418_
*465 _0419_
*466 _0420_
*467 _0421_
*468 _0422_
*469 _0423_
*470 _0424_
*471 _0425_
*472 _0426_
*473 _0427_
*474 _0428_
*475 _0429_
*476 _0430_
*477 _0431_
*478 _0432_
*479 _0433_
*480 _0434_
*481 _0435_
*482 _0436_
*483 _0437_
*484 _0438_
*485 _0439_
*486 _0440_
*487 _0441_
*488 _0442_
*489 _0443_
*490 _0444_
*491 _0445_
*492 _0446_
*493 _0447_
*494 _0448_
*495 _0449_
*496 _0450_
*497 _0451_
*498 _0452_
*499 _0453_
*500 _0454_
*501 _0455_
*502 _0456_
*503 _0457_
*504 _0458_
*505 _0459_
*506 _0460_
*507 _0461_
*508 _0462_
*509 _0463_
*510 _0464_
*511 _0465_
*512 _0466_
*513 _0467_
*514 _0468_
*515 _0469_
*516 _0470_
*517 _0471_
*518 _0472_
*519 _0473_
*520 _0474_
*521 _0475_
*522 _0476_
*523 _0477_
*524 _0478_
*525 _0479_
*526 _0480_
*527 _0481_
*528 _0482_
*529 _0483_
*530 _0484_
*531 _0485_
*532 _0486_
*533 _0487_
*534 _0488_
*535 _0489_
*536 _0490_
*537 _0491_
*538 _0492_
*539 _0493_
*540 _0494_
*541 _0495_
*542 _0496_
*543 _0497_
*544 _0498_
*545 _0499_
*546 _0500_
*547 _0501_
*548 _0502_
*549 _0503_
*550 _0504_
*551 _0505_
*552 _0506_
*553 _0507_
*554 _0508_
*555 _0509_
*556 _0510_
*557 _0511_
*558 _0512_
*559 _0513_
*560 _0514_
*561 _0515_
*562 _0516_
*563 _0517_
*564 _0518_
*565 _0519_
*566 _0520_
*567 _0521_
*568 _0522_
*569 _0523_
*570 _0524_
*571 _0525_
*572 _0526_
*573 _0527_
*574 _0528_
*575 _0529_
*576 _0530_
*577 _0531_
*578 _0532_
*579 _0533_
*580 _0534_
*581 _0535_
*582 _0536_
*583 _0537_
*584 _0538_
*585 _0539_
*586 _0540_
*587 _0541_
*588 _0542_
*589 _0543_
*590 _0544_
*591 _0545_
*592 _0546_
*593 _0547_
*594 _0548_
*595 _0549_
*596 _0550_
*597 _0551_
*598 _0552_
*599 _0553_
*600 _0554_
*601 _0555_
*602 _0556_
*603 _0557_
*604 _0558_
*605 _0559_
*606 _0560_
*607 _0561_
*608 _0562_
*609 _0563_
*610 _0564_
*611 _0565_
*612 _0566_
*613 _0567_
*614 _0568_
*615 _0569_
*616 _0570_
*617 _0571_
*618 _0572_
*619 _0573_
*620 _0574_
*621 _0575_
*622 _0576_
*623 _0577_
*624 _0578_
*625 _0579_
*626 _0580_
*627 _0581_
*628 _0582_
*629 _0583_
*630 _0584_
*631 _0585_
*632 _0586_
*633 _0587_
*634 _0588_
*635 _0589_
*636 _0590_
*637 _0591_
*638 _0592_
*639 _0593_
*640 _0594_
*641 _0595_
*642 _0596_
*643 _0597_
*644 _0598_
*645 _0599_
*646 _0600_
*647 _0601_
*648 _0602_
*649 _0603_
*650 _0604_
*651 _0605_
*652 _0606_
*653 _0607_
*654 _0608_
*655 _0609_
*656 _0610_
*657 _0611_
*658 _0612_
*659 _0613_
*660 _0614_
*661 _0615_
*662 _0616_
*663 _0617_
*664 _0618_
*665 _0619_
*666 _0620_
*667 _0621_
*668 _0622_
*669 _0623_
*670 _0624_
*671 _0625_
*672 _0626_
*673 _0627_
*674 _0628_
*675 _0629_
*676 _0630_
*677 _0631_
*678 _0632_
*679 _0633_
*680 _0634_
*681 _0635_
*682 _0636_
*683 _0637_
*684 _0638_
*685 _0639_
*686 _0640_
*687 _0641_
*688 _0642_
*689 _0643_
*690 _0644_
*691 _0645_
*692 _0646_
*693 _0647_
*694 _0648_
*695 _0649_
*696 _0650_
*697 _0651_
*698 _0652_
*699 _0653_
*700 _0654_
*701 _0655_
*702 _0656_
*703 _0657_
*704 _0658_
*705 _0659_
*706 _0660_
*707 _0661_
*708 _0662_
*709 _0663_
*710 _0664_
*711 _0665_
*712 _0666_
*713 _0667_
*714 _0668_
*715 _0669_
*716 _0670_
*717 _0671_
*718 _0672_
*719 _0673_
*720 _0674_
*721 _0675_
*722 _0676_
*723 _0677_
*724 _0678_
*725 _0679_
*726 _0680_
*727 _0681_
*728 _0682_
*729 _0683_
*730 _0684_
*731 _0685_
*732 _0686_
*733 _0687_
*734 _0688_
*735 _0689_
*736 _0690_
*737 _0691_
*738 _0692_
*739 _0693_
*740 _0694_
*741 _0695_
*742 _0696_
*743 _0697_
*744 _0698_
*745 _0699_
*746 _0700_
*747 _0701_
*748 _0702_
*749 _0703_
*750 _0704_
*751 _0705_
*752 _0706_
*753 _0707_
*754 _0708_
*755 _0709_
*756 _0710_
*757 _0711_
*758 _0712_
*759 _0713_
*760 _0714_
*761 _0715_
*762 _0716_
*763 _0717_
*764 _0718_
*765 _0719_
*766 _0720_
*767 _0721_
*768 _0722_
*769 _0723_
*770 _0724_
*771 _0725_
*772 _0726_
*773 _0727_
*774 _0728_
*775 _0729_
*776 _0730_
*777 _0731_
*778 _0732_
*779 _0733_
*780 _0734_
*781 _0735_
*782 _0736_
*783 _0737_
*784 _0738_
*785 _0739_
*786 _0740_
*787 _0741_
*788 _0742_
*789 _0743_
*790 _0744_
*791 _0745_
*792 _0746_
*793 _0747_
*794 _0748_
*795 _0749_
*796 _0750_
*797 _0751_
*798 _0752_
*799 _0753_
*800 _0754_
*801 _0755_
*802 _0756_
*803 _0757_
*804 _0758_
*805 _0759_
*806 _0760_
*807 _0761_
*808 _0762_
*809 _0763_
*810 _0764_
*811 _0765_
*812 _0766_
*813 _0767_
*814 _0768_
*815 _0769_
*816 _0770_
*817 _0771_
*818 _0772_
*819 _0773_
*820 _0774_
*821 _0775_
*822 _0776_
*823 _0777_
*824 _0778_
*825 _0779_
*826 _0780_
*827 _0781_
*828 _0782_
*829 _0783_
*830 _0784_
*831 _0785_
*832 _0786_
*833 _0787_
*834 _0788_
*835 _0789_
*836 _0790_
*837 _0791_
*838 _0792_
*839 _0793_
*840 _0794_
*841 _0795_
*842 _0796_
*843 _0797_
*844 _0798_
*845 _0799_
*846 _0800_
*847 _0801_
*848 _0802_
*849 _0803_
*850 _0804_
*851 _0805_
*852 _0806_
*853 _0807_
*854 _0808_
*855 _0809_
*856 _0810_
*857 _0811_
*858 _0812_
*859 _0813_
*860 _0814_
*861 _0815_
*862 _0816_
*863 _0817_
*864 clknet_0_clk
*865 clknet_2_0__leaf_clk
*866 clknet_2_1__leaf_clk
*867 clknet_2_2__leaf_clk
*868 clknet_2_3__leaf_clk
*869 cpu\.addr_mux\.a_in\[0\]
*870 cpu\.addr_mux\.a_in\[1\]
*871 cpu\.addr_mux\.a_in\[2\]
*872 cpu\.addr_mux\.a_in\[3\]
*873 cpu\.addr_mux\.a_in\[4\]
*874 cpu\.addr_mux\.a_in\[5\]
*875 cpu\.addr_mux\.a_in\[6\]
*876 cpu\.addr_mux\.b_in\[0\]
*877 cpu\.addr_mux\.b_in\[1\]
*878 cpu\.addr_mux\.b_in\[2\]
*879 cpu\.addr_mux\.b_in\[3\]
*880 cpu\.addr_mux\.b_in\[4\]
*881 cpu\.addr_mux\.b_in\[5\]
*882 cpu\.addr_mux\.b_in\[6\]
*883 cpu\.alu\.a_in\[0\]
*884 cpu\.alu\.a_in\[1\]
*885 cpu\.alu\.a_in\[2\]
*886 cpu\.alu\.a_in\[3\]
*887 cpu\.alu\.a_in\[4\]
*888 cpu\.alu\.a_in\[5\]
*889 cpu\.alu\.a_in\[6\]
*890 cpu\.alu\.a_in\[7\]
*891 cpu\.alu\.flags_zn_out\[0\]
*892 cpu\.ccr_zn_buss\[0\]
*893 cpu\.ccr_zn_buss\[1\]
*894 cpu\.ctrl_drive_out
*895 cpu\.ctrl_we_out
*896 cpu\.cu\.curr_state\[0\]
*897 cpu\.cu\.curr_state\[1\]
*898 cpu\.cu\.curr_state\[2\]
*899 cpu\.cu\.curr_state\[3\]
*900 cpu\.cu\.curr_state\[4\]
*901 cpu\.cu\.curr_state\[5\]
*902 cpu\.cu\.curr_state\[6\]
*903 cpu\.cu\.ir_op_buss_in\[0\]
*904 cpu\.cu\.ir_op_buss_in\[1\]
*905 cpu\.cu\.ir_op_buss_in\[2\]
*906 cpu\.cu\.ir_op_buss_in\[3\]
*907 cpu\.cu\.ir_op_buss_in\[4\]
*908 cpu\.cu\.ir_op_buss_in\[5\]
*909 cpu\.cu\.ir_op_buss_in\[6\]
*910 cpu\.cu\.ir_op_buss_in\[7\]
*911 net1
*912 net10
*913 net11
*914 net12
*915 net13
*916 net14
*917 net15
*918 net16
*919 net17
*920 net18
*921 net19
*922 net2
*923 net20
*924 net21
*925 net22
*926 net23
*927 net24
*928 net25
*929 net3
*930 net4
*931 net5
*932 net6
*933 net7
*934 net8
*935 net9
*936 FILLER_0_0_109
*937 FILLER_0_0_113
*938 FILLER_0_0_125
*939 FILLER_0_0_137
*940 FILLER_0_0_141
*941 FILLER_0_0_15
*942 FILLER_0_0_153
*943 FILLER_0_0_165
*944 FILLER_0_0_169
*945 FILLER_0_0_181
*946 FILLER_0_0_193
*947 FILLER_0_0_197
*948 FILLER_0_0_209
*949 FILLER_0_0_221
*950 FILLER_0_0_225
*951 FILLER_0_0_237
*952 FILLER_0_0_249
*953 FILLER_0_0_253
*954 FILLER_0_0_265
*955 FILLER_0_0_27
*956 FILLER_0_0_277
*957 FILLER_0_0_281
*958 FILLER_0_0_29
*959 FILLER_0_0_293
*960 FILLER_0_0_3
*961 FILLER_0_0_305
*962 FILLER_0_0_309
*963 FILLER_0_0_321
*964 FILLER_0_0_333
*965 FILLER_0_0_41
*966 FILLER_0_0_53
*967 FILLER_0_0_57
*968 FILLER_0_0_69
*969 FILLER_0_0_81
*970 FILLER_0_0_85
*971 FILLER_0_0_97
*972 FILLER_0_10_107
*973 FILLER_0_10_115
*974 FILLER_0_10_133
*975 FILLER_0_10_139
*976 FILLER_0_10_141
*977 FILLER_0_10_150
*978 FILLER_0_10_162
*979 FILLER_0_10_174
*980 FILLER_0_10_180
*981 FILLER_0_10_200
*982 FILLER_0_10_214
*983 FILLER_0_10_222
*984 FILLER_0_10_256
*985 FILLER_0_10_264
*986 FILLER_0_10_271
*987 FILLER_0_10_280
*988 FILLER_0_10_29
*989 FILLER_0_10_3
*990 FILLER_0_10_302
*991 FILLER_0_10_319
*992 FILLER_0_10_331
*993 FILLER_0_10_39
*994 FILLER_0_10_53
*995 FILLER_0_10_65
*996 FILLER_0_10_79
*997 FILLER_0_10_83
*998 FILLER_0_10_95
*999 FILLER_0_11_103
*1000 FILLER_0_11_110
*1001 FILLER_0_11_113
*1002 FILLER_0_11_119
*1003 FILLER_0_11_131
*1004 FILLER_0_11_137
*1005 FILLER_0_11_14
*1006 FILLER_0_11_150
*1007 FILLER_0_11_160
*1008 FILLER_0_11_184
*1009 FILLER_0_11_199
*1010 FILLER_0_11_207
*1011 FILLER_0_11_213
*1012 FILLER_0_11_22
*1013 FILLER_0_11_221
*1014 FILLER_0_11_225
*1015 FILLER_0_11_233
*1016 FILLER_0_11_239
*1017 FILLER_0_11_247
*1018 FILLER_0_11_254
*1019 FILLER_0_11_279
*1020 FILLER_0_11_281
*1021 FILLER_0_11_289
*1022 FILLER_0_11_298
*1023 FILLER_0_11_3
*1024 FILLER_0_11_310
*1025 FILLER_0_11_317
*1026 FILLER_0_11_329
*1027 FILLER_0_11_34
*1028 FILLER_0_11_42
*1029 FILLER_0_11_65
*1030 FILLER_0_11_77
*1031 FILLER_0_11_9
*1032 FILLER_0_11_91
*1033 FILLER_0_11_95
*1034 FILLER_0_11_99
*1035 FILLER_0_12_108
*1036 FILLER_0_12_131
*1037 FILLER_0_12_139
*1038 FILLER_0_12_15
*1039 FILLER_0_12_154
*1040 FILLER_0_12_158
*1041 FILLER_0_12_164
*1042 FILLER_0_12_172
*1043 FILLER_0_12_182
*1044 FILLER_0_12_195
*1045 FILLER_0_12_197
*1046 FILLER_0_12_224
*1047 FILLER_0_12_243
*1048 FILLER_0_12_25
*1049 FILLER_0_12_256
*1050 FILLER_0_12_264
*1051 FILLER_0_12_270
*1052 FILLER_0_12_281
*1053 FILLER_0_12_289
*1054 FILLER_0_12_3
*1055 FILLER_0_12_305
*1056 FILLER_0_12_314
*1057 FILLER_0_12_329
*1058 FILLER_0_12_40
*1059 FILLER_0_12_52
*1060 FILLER_0_12_64
*1061 FILLER_0_12_72
*1062 FILLER_0_12_76
*1063 FILLER_0_12_85
*1064 FILLER_0_12_91
*1065 FILLER_0_12_99
*1066 FILLER_0_13_11
*1067 FILLER_0_13_111
*1068 FILLER_0_13_118
*1069 FILLER_0_13_128
*1070 FILLER_0_13_141
*1071 FILLER_0_13_146
*1072 FILLER_0_13_154
*1073 FILLER_0_13_178
*1074 FILLER_0_13_186
*1075 FILLER_0_13_193
*1076 FILLER_0_13_20
*1077 FILLER_0_13_214
*1078 FILLER_0_13_222
*1079 FILLER_0_13_225
*1080 FILLER_0_13_237
*1081 FILLER_0_13_249
*1082 FILLER_0_13_256
*1083 FILLER_0_13_269
*1084 FILLER_0_13_277
*1085 FILLER_0_13_3
*1086 FILLER_0_13_302
*1087 FILLER_0_13_32
*1088 FILLER_0_13_320
*1089 FILLER_0_13_332
*1090 FILLER_0_13_42
*1091 FILLER_0_13_50
*1092 FILLER_0_13_70
*1093 FILLER_0_13_82
*1094 FILLER_0_13_99
*1095 FILLER_0_14_107
*1096 FILLER_0_14_126
*1097 FILLER_0_14_149
*1098 FILLER_0_14_162
*1099 FILLER_0_14_170
*1100 FILLER_0_14_185
*1101 FILLER_0_14_193
*1102 FILLER_0_14_197
*1103 FILLER_0_14_205
*1104 FILLER_0_14_251
*1105 FILLER_0_14_256
*1106 FILLER_0_14_26
*1107 FILLER_0_14_260
*1108 FILLER_0_14_267
*1109 FILLER_0_14_273
*1110 FILLER_0_14_282
*1111 FILLER_0_14_29
*1112 FILLER_0_14_290
*1113 FILLER_0_14_298
*1114 FILLER_0_14_3
*1115 FILLER_0_14_306
*1116 FILLER_0_14_309
*1117 FILLER_0_14_328
*1118 FILLER_0_14_334
*1119 FILLER_0_14_38
*1120 FILLER_0_14_54
*1121 FILLER_0_14_58
*1122 FILLER_0_14_74
*1123 FILLER_0_14_9
*1124 FILLER_0_15_110
*1125 FILLER_0_15_113
*1126 FILLER_0_15_122
*1127 FILLER_0_15_134
*1128 FILLER_0_15_141
*1129 FILLER_0_15_153
*1130 FILLER_0_15_163
*1131 FILLER_0_15_167
*1132 FILLER_0_15_169
*1133 FILLER_0_15_18
*1134 FILLER_0_15_180
*1135 FILLER_0_15_201
*1136 FILLER_0_15_207
*1137 FILLER_0_15_213
*1138 FILLER_0_15_221
*1139 FILLER_0_15_225
*1140 FILLER_0_15_237
*1141 FILLER_0_15_24
*1142 FILLER_0_15_243
*1143 FILLER_0_15_256
*1144 FILLER_0_15_268
*1145 FILLER_0_15_278
*1146 FILLER_0_15_28
*1147 FILLER_0_15_281
*1148 FILLER_0_15_3
*1149 FILLER_0_15_308
*1150 FILLER_0_15_312
*1151 FILLER_0_15_321
*1152 FILLER_0_15_333
*1153 FILLER_0_15_35
*1154 FILLER_0_15_43
*1155 FILLER_0_15_54
*1156 FILLER_0_15_57
*1157 FILLER_0_15_7
*1158 FILLER_0_15_73
*1159 FILLER_0_15_85
*1160 FILLER_0_15_96
*1161 FILLER_0_16_107
*1162 FILLER_0_16_11
*1163 FILLER_0_16_116
*1164 FILLER_0_16_124
*1165 FILLER_0_16_130
*1166 FILLER_0_16_138
*1167 FILLER_0_16_141
*1168 FILLER_0_16_149
*1169 FILLER_0_16_17
*1170 FILLER_0_16_175
*1171 FILLER_0_16_187
*1172 FILLER_0_16_202
*1173 FILLER_0_16_221
*1174 FILLER_0_16_227
*1175 FILLER_0_16_233
*1176 FILLER_0_16_237
*1177 FILLER_0_16_244
*1178 FILLER_0_16_25
*1179 FILLER_0_16_253
*1180 FILLER_0_16_261
*1181 FILLER_0_16_272
*1182 FILLER_0_16_287
*1183 FILLER_0_16_295
*1184 FILLER_0_16_3
*1185 FILLER_0_16_304
*1186 FILLER_0_16_35
*1187 FILLER_0_16_47
*1188 FILLER_0_16_56
*1189 FILLER_0_16_68
*1190 FILLER_0_16_79
*1191 FILLER_0_16_83
*1192 FILLER_0_16_90
*1193 FILLER_0_17_104
*1194 FILLER_0_17_113
*1195 FILLER_0_17_140
*1196 FILLER_0_17_152
*1197 FILLER_0_17_160
*1198 FILLER_0_17_165
*1199 FILLER_0_17_169
*1200 FILLER_0_17_181
*1201 FILLER_0_17_189
*1202 FILLER_0_17_201
*1203 FILLER_0_17_207
*1204 FILLER_0_17_223
*1205 FILLER_0_17_225
*1206 FILLER_0_17_245
*1207 FILLER_0_17_265
*1208 FILLER_0_17_27
*1209 FILLER_0_17_273
*1210 FILLER_0_17_279
*1211 FILLER_0_17_293
*1212 FILLER_0_17_3
*1213 FILLER_0_17_306
*1214 FILLER_0_17_31
*1215 FILLER_0_17_318
*1216 FILLER_0_17_330
*1217 FILLER_0_17_334
*1218 FILLER_0_17_38
*1219 FILLER_0_17_46
*1220 FILLER_0_17_55
*1221 FILLER_0_17_60
*1222 FILLER_0_17_77
*1223 FILLER_0_17_9
*1224 FILLER_0_17_92
*1225 FILLER_0_18_105
*1226 FILLER_0_18_120
*1227 FILLER_0_18_128
*1228 FILLER_0_18_135
*1229 FILLER_0_18_139
*1230 FILLER_0_18_14
*1231 FILLER_0_18_141
*1232 FILLER_0_18_158
*1233 FILLER_0_18_173
*1234 FILLER_0_18_194
*1235 FILLER_0_18_197
*1236 FILLER_0_18_20
*1237 FILLER_0_18_218
*1238 FILLER_0_18_229
*1239 FILLER_0_18_237
*1240 FILLER_0_18_247
*1241 FILLER_0_18_251
*1242 FILLER_0_18_253
*1243 FILLER_0_18_259
*1244 FILLER_0_18_263
*1245 FILLER_0_18_271
*1246 FILLER_0_18_279
*1247 FILLER_0_18_286
*1248 FILLER_0_18_29
*1249 FILLER_0_18_3
*1250 FILLER_0_18_303
*1251 FILLER_0_18_307
*1252 FILLER_0_18_309
*1253 FILLER_0_18_334
*1254 FILLER_0_18_64
*1255 FILLER_0_18_76
*1256 FILLER_0_18_85
*1257 FILLER_0_18_93
*1258 FILLER_0_18_97
*1259 FILLER_0_19_109
*1260 FILLER_0_19_121
*1261 FILLER_0_19_125
*1262 FILLER_0_19_134
*1263 FILLER_0_19_142
*1264 FILLER_0_19_152
*1265 FILLER_0_19_164
*1266 FILLER_0_19_174
*1267 FILLER_0_19_186
*1268 FILLER_0_19_193
*1269 FILLER_0_19_197
*1270 FILLER_0_19_21
*1271 FILLER_0_19_225
*1272 FILLER_0_19_238
*1273 FILLER_0_19_246
*1274 FILLER_0_19_250
*1275 FILLER_0_19_254
*1276 FILLER_0_19_267
*1277 FILLER_0_19_275
*1278 FILLER_0_19_293
*1279 FILLER_0_19_3
*1280 FILLER_0_19_313
*1281 FILLER_0_19_317
*1282 FILLER_0_19_321
*1283 FILLER_0_19_330
*1284 FILLER_0_19_334
*1285 FILLER_0_19_36
*1286 FILLER_0_19_48
*1287 FILLER_0_19_57
*1288 FILLER_0_19_65
*1289 FILLER_0_19_74
*1290 FILLER_0_19_97
*1291 FILLER_0_1_105
*1292 FILLER_0_1_111
*1293 FILLER_0_1_113
*1294 FILLER_0_1_125
*1295 FILLER_0_1_137
*1296 FILLER_0_1_149
*1297 FILLER_0_1_15
*1298 FILLER_0_1_161
*1299 FILLER_0_1_167
*1300 FILLER_0_1_169
*1301 FILLER_0_1_181
*1302 FILLER_0_1_193
*1303 FILLER_0_1_205
*1304 FILLER_0_1_217
*1305 FILLER_0_1_223
*1306 FILLER_0_1_225
*1307 FILLER_0_1_237
*1308 FILLER_0_1_249
*1309 FILLER_0_1_261
*1310 FILLER_0_1_27
*1311 FILLER_0_1_273
*1312 FILLER_0_1_279
*1313 FILLER_0_1_281
*1314 FILLER_0_1_293
*1315 FILLER_0_1_3
*1316 FILLER_0_1_305
*1317 FILLER_0_1_317
*1318 FILLER_0_1_329
*1319 FILLER_0_1_39
*1320 FILLER_0_1_51
*1321 FILLER_0_1_55
*1322 FILLER_0_1_57
*1323 FILLER_0_1_69
*1324 FILLER_0_1_81
*1325 FILLER_0_1_93
*1326 FILLER_0_20_110
*1327 FILLER_0_20_119
*1328 FILLER_0_20_123
*1329 FILLER_0_20_139
*1330 FILLER_0_20_15
*1331 FILLER_0_20_157
*1332 FILLER_0_20_167
*1333 FILLER_0_20_173
*1334 FILLER_0_20_194
*1335 FILLER_0_20_203
*1336 FILLER_0_20_214
*1337 FILLER_0_20_221
*1338 FILLER_0_20_234
*1339 FILLER_0_20_250
*1340 FILLER_0_20_260
*1341 FILLER_0_20_27
*1342 FILLER_0_20_272
*1343 FILLER_0_20_280
*1344 FILLER_0_20_290
*1345 FILLER_0_20_3
*1346 FILLER_0_20_302
*1347 FILLER_0_20_309
*1348 FILLER_0_20_32
*1349 FILLER_0_20_329
*1350 FILLER_0_20_49
*1351 FILLER_0_20_74
*1352 FILLER_0_20_82
*1353 FILLER_0_20_98
*1354 FILLER_0_21_128
*1355 FILLER_0_21_160
*1356 FILLER_0_21_169
*1357 FILLER_0_21_181
*1358 FILLER_0_21_196
*1359 FILLER_0_21_203
*1360 FILLER_0_21_212
*1361 FILLER_0_21_230
*1362 FILLER_0_21_237
*1363 FILLER_0_21_24
*1364 FILLER_0_21_247
*1365 FILLER_0_21_276
*1366 FILLER_0_21_281
*1367 FILLER_0_21_3
*1368 FILLER_0_21_316
*1369 FILLER_0_21_328
*1370 FILLER_0_21_334
*1371 FILLER_0_21_40
*1372 FILLER_0_21_48
*1373 FILLER_0_21_55
*1374 FILLER_0_21_79
*1375 FILLER_0_21_9
*1376 FILLER_0_21_99
*1377 FILLER_0_22_109
*1378 FILLER_0_22_113
*1379 FILLER_0_22_120
*1380 FILLER_0_22_135
*1381 FILLER_0_22_139
*1382 FILLER_0_22_150
*1383 FILLER_0_22_175
*1384 FILLER_0_22_194
*1385 FILLER_0_22_206
*1386 FILLER_0_22_213
*1387 FILLER_0_22_224
*1388 FILLER_0_22_232
*1389 FILLER_0_22_249
*1390 FILLER_0_22_257
*1391 FILLER_0_22_26
*1392 FILLER_0_22_281
*1393 FILLER_0_22_29
*1394 FILLER_0_22_290
*1395 FILLER_0_22_298
*1396 FILLER_0_22_309
*1397 FILLER_0_22_41
*1398 FILLER_0_22_64
*1399 FILLER_0_22_72
*1400 FILLER_0_22_79
*1401 FILLER_0_22_83
*1402 FILLER_0_22_97
*1403 FILLER_0_23_107
*1404 FILLER_0_23_111
*1405 FILLER_0_23_113
*1406 FILLER_0_23_126
*1407 FILLER_0_23_138
*1408 FILLER_0_23_15
*1409 FILLER_0_23_150
*1410 FILLER_0_23_163
*1411 FILLER_0_23_167
*1412 FILLER_0_23_169
*1413 FILLER_0_23_182
*1414 FILLER_0_23_193
*1415 FILLER_0_23_200
*1416 FILLER_0_23_212
*1417 FILLER_0_23_223
*1418 FILLER_0_23_225
*1419 FILLER_0_23_23
*1420 FILLER_0_23_234
*1421 FILLER_0_23_278
*1422 FILLER_0_23_281
*1423 FILLER_0_23_292
*1424 FILLER_0_23_3
*1425 FILLER_0_23_300
*1426 FILLER_0_23_307
*1427 FILLER_0_23_319
*1428 FILLER_0_23_323
*1429 FILLER_0_23_331
*1430 FILLER_0_23_47
*1431 FILLER_0_23_55
*1432 FILLER_0_23_57
*1433 FILLER_0_23_70
*1434 FILLER_0_23_78
*1435 FILLER_0_23_88
*1436 FILLER_0_24_108
*1437 FILLER_0_24_116
*1438 FILLER_0_24_151
*1439 FILLER_0_24_187
*1440 FILLER_0_24_195
*1441 FILLER_0_24_219
*1442 FILLER_0_24_227
*1443 FILLER_0_24_247
*1444 FILLER_0_24_251
*1445 FILLER_0_24_253
*1446 FILLER_0_24_261
*1447 FILLER_0_24_268
*1448 FILLER_0_24_280
*1449 FILLER_0_24_288
*1450 FILLER_0_24_29
*1451 FILLER_0_24_3
*1452 FILLER_0_24_304
*1453 FILLER_0_24_332
*1454 FILLER_0_24_40
*1455 FILLER_0_24_52
*1456 FILLER_0_24_58
*1457 FILLER_0_24_64
*1458 FILLER_0_24_83
*1459 FILLER_0_24_85
*1460 FILLER_0_25_107
*1461 FILLER_0_25_111
*1462 FILLER_0_25_113
*1463 FILLER_0_25_125
*1464 FILLER_0_25_137
*1465 FILLER_0_25_146
*1466 FILLER_0_25_158
*1467 FILLER_0_25_166
*1468 FILLER_0_25_169
*1469 FILLER_0_25_177
*1470 FILLER_0_25_181
*1471 FILLER_0_25_209
*1472 FILLER_0_25_214
*1473 FILLER_0_25_222
*1474 FILLER_0_25_225
*1475 FILLER_0_25_237
*1476 FILLER_0_25_249
*1477 FILLER_0_25_258
*1478 FILLER_0_25_281
*1479 FILLER_0_25_294
*1480 FILLER_0_25_31
*1481 FILLER_0_25_315
*1482 FILLER_0_25_323
*1483 FILLER_0_25_329
*1484 FILLER_0_25_43
*1485 FILLER_0_25_51
*1486 FILLER_0_25_55
*1487 FILLER_0_25_57
*1488 FILLER_0_25_69
*1489 FILLER_0_25_81
*1490 FILLER_0_25_90
*1491 FILLER_0_25_98
*1492 FILLER_0_26_136
*1493 FILLER_0_26_149
*1494 FILLER_0_26_15
*1495 FILLER_0_26_165
*1496 FILLER_0_26_173
*1497 FILLER_0_26_189
*1498 FILLER_0_26_193
*1499 FILLER_0_26_197
*1500 FILLER_0_26_21
*1501 FILLER_0_26_242
*1502 FILLER_0_26_250
*1503 FILLER_0_26_266
*1504 FILLER_0_26_278
*1505 FILLER_0_26_286
*1506 FILLER_0_26_3
*1507 FILLER_0_26_302
*1508 FILLER_0_26_309
*1509 FILLER_0_26_34
*1510 FILLER_0_26_51
*1511 FILLER_0_26_61
*1512 FILLER_0_26_67
*1513 FILLER_0_26_75
*1514 FILLER_0_26_83
*1515 FILLER_0_26_85
*1516 FILLER_0_27_105
*1517 FILLER_0_27_111
*1518 FILLER_0_27_113
*1519 FILLER_0_27_125
*1520 FILLER_0_27_135
*1521 FILLER_0_27_141
*1522 FILLER_0_27_160
*1523 FILLER_0_27_17
*1524 FILLER_0_27_186
*1525 FILLER_0_27_192
*1526 FILLER_0_27_207
*1527 FILLER_0_27_212
*1528 FILLER_0_27_225
*1529 FILLER_0_27_233
*1530 FILLER_0_27_247
*1531 FILLER_0_27_258
*1532 FILLER_0_27_262
*1533 FILLER_0_27_266
*1534 FILLER_0_27_272
*1535 FILLER_0_27_3
*1536 FILLER_0_27_30
*1537 FILLER_0_27_304
*1538 FILLER_0_27_37
*1539 FILLER_0_27_45
*1540 FILLER_0_27_52
*1541 FILLER_0_27_57
*1542 FILLER_0_27_68
*1543 FILLER_0_27_80
*1544 FILLER_0_27_90
*1545 FILLER_0_27_95
*1546 FILLER_0_28_107
*1547 FILLER_0_28_11
*1548 FILLER_0_28_135
*1549 FILLER_0_28_139
*1550 FILLER_0_28_147
*1551 FILLER_0_28_153
*1552 FILLER_0_28_170
*1553 FILLER_0_28_174
*1554 FILLER_0_28_188
*1555 FILLER_0_28_207
*1556 FILLER_0_28_217
*1557 FILLER_0_28_231
*1558 FILLER_0_28_24
*1559 FILLER_0_28_245
*1560 FILLER_0_28_251
*1561 FILLER_0_28_253
*1562 FILLER_0_28_257
*1563 FILLER_0_28_29
*1564 FILLER_0_28_299
*1565 FILLER_0_28_3
*1566 FILLER_0_28_307
*1567 FILLER_0_28_315
*1568 FILLER_0_28_323
*1569 FILLER_0_28_332
*1570 FILLER_0_28_59
*1571 FILLER_0_28_7
*1572 FILLER_0_28_85
*1573 FILLER_0_29_104
*1574 FILLER_0_29_113
*1575 FILLER_0_29_120
*1576 FILLER_0_29_126
*1577 FILLER_0_29_134
*1578 FILLER_0_29_138
*1579 FILLER_0_29_148
*1580 FILLER_0_29_161
*1581 FILLER_0_29_167
*1582 FILLER_0_29_174
*1583 FILLER_0_29_190
*1584 FILLER_0_29_208
*1585 FILLER_0_29_214
*1586 FILLER_0_29_222
*1587 FILLER_0_29_233
*1588 FILLER_0_29_245
*1589 FILLER_0_29_26
*1590 FILLER_0_29_260
*1591 FILLER_0_29_266
*1592 FILLER_0_29_275
*1593 FILLER_0_29_279
*1594 FILLER_0_29_281
*1595 FILLER_0_29_289
*1596 FILLER_0_29_309
*1597 FILLER_0_29_316
*1598 FILLER_0_29_326
*1599 FILLER_0_29_334
*1600 FILLER_0_29_38
*1601 FILLER_0_29_42
*1602 FILLER_0_29_46
*1603 FILLER_0_29_54
*1604 FILLER_0_29_69
*1605 FILLER_0_29_81
*1606 FILLER_0_29_89
*1607 FILLER_0_29_94
*1608 FILLER_0_2_109
*1609 FILLER_0_2_122
*1610 FILLER_0_2_134
*1611 FILLER_0_2_141
*1612 FILLER_0_2_15
*1613 FILLER_0_2_153
*1614 FILLER_0_2_165
*1615 FILLER_0_2_177
*1616 FILLER_0_2_189
*1617 FILLER_0_2_195
*1618 FILLER_0_2_197
*1619 FILLER_0_2_209
*1620 FILLER_0_2_221
*1621 FILLER_0_2_233
*1622 FILLER_0_2_245
*1623 FILLER_0_2_251
*1624 FILLER_0_2_253
*1625 FILLER_0_2_265
*1626 FILLER_0_2_27
*1627 FILLER_0_2_277
*1628 FILLER_0_2_289
*1629 FILLER_0_2_29
*1630 FILLER_0_2_3
*1631 FILLER_0_2_301
*1632 FILLER_0_2_307
*1633 FILLER_0_2_309
*1634 FILLER_0_2_321
*1635 FILLER_0_2_333
*1636 FILLER_0_2_41
*1637 FILLER_0_2_53
*1638 FILLER_0_2_65
*1639 FILLER_0_2_77
*1640 FILLER_0_2_83
*1641 FILLER_0_2_85
*1642 FILLER_0_2_97
*1643 FILLER_0_30_106
*1644 FILLER_0_30_11
*1645 FILLER_0_30_130
*1646 FILLER_0_30_139
*1647 FILLER_0_30_146
*1648 FILLER_0_30_165
*1649 FILLER_0_30_19
*1650 FILLER_0_30_194
*1651 FILLER_0_30_210
*1652 FILLER_0_30_216
*1653 FILLER_0_30_228
*1654 FILLER_0_30_253
*1655 FILLER_0_30_260
*1656 FILLER_0_30_275
*1657 FILLER_0_30_293
*1658 FILLER_0_30_3
*1659 FILLER_0_30_305
*1660 FILLER_0_30_309
*1661 FILLER_0_30_332
*1662 FILLER_0_30_38
*1663 FILLER_0_30_7
*1664 FILLER_0_30_83
*1665 FILLER_0_30_85
*1666 FILLER_0_31_105
*1667 FILLER_0_31_111
*1668 FILLER_0_31_113
*1669 FILLER_0_31_125
*1670 FILLER_0_31_151
*1671 FILLER_0_31_159
*1672 FILLER_0_31_166
*1673 FILLER_0_31_172
*1674 FILLER_0_31_188
*1675 FILLER_0_31_196
*1676 FILLER_0_31_207
*1677 FILLER_0_31_221
*1678 FILLER_0_31_236
*1679 FILLER_0_31_240
*1680 FILLER_0_31_244
*1681 FILLER_0_31_250
*1682 FILLER_0_31_260
*1683 FILLER_0_31_27
*1684 FILLER_0_31_272
*1685 FILLER_0_31_281
*1686 FILLER_0_31_293
*1687 FILLER_0_31_3
*1688 FILLER_0_31_303
*1689 FILLER_0_31_315
*1690 FILLER_0_31_321
*1691 FILLER_0_31_326
*1692 FILLER_0_31_334
*1693 FILLER_0_31_35
*1694 FILLER_0_31_47
*1695 FILLER_0_31_77
*1696 FILLER_0_31_83
*1697 FILLER_0_31_93
*1698 FILLER_0_32_105
*1699 FILLER_0_32_129
*1700 FILLER_0_32_137
*1701 FILLER_0_32_141
*1702 FILLER_0_32_15
*1703 FILLER_0_32_150
*1704 FILLER_0_32_159
*1705 FILLER_0_32_171
*1706 FILLER_0_32_175
*1707 FILLER_0_32_192
*1708 FILLER_0_32_203
*1709 FILLER_0_32_211
*1710 FILLER_0_32_220
*1711 FILLER_0_32_229
*1712 FILLER_0_32_253
*1713 FILLER_0_32_258
*1714 FILLER_0_32_268
*1715 FILLER_0_32_27
*1716 FILLER_0_32_275
*1717 FILLER_0_32_291
*1718 FILLER_0_32_3
*1719 FILLER_0_32_307
*1720 FILLER_0_32_309
*1721 FILLER_0_32_313
*1722 FILLER_0_32_326
*1723 FILLER_0_32_334
*1724 FILLER_0_32_35
*1725 FILLER_0_32_42
*1726 FILLER_0_32_50
*1727 FILLER_0_32_58
*1728 FILLER_0_33_101
*1729 FILLER_0_33_141
*1730 FILLER_0_33_153
*1731 FILLER_0_33_169
*1732 FILLER_0_33_181
*1733 FILLER_0_33_203
*1734 FILLER_0_33_209
*1735 FILLER_0_33_221
*1736 FILLER_0_33_233
*1737 FILLER_0_33_239
*1738 FILLER_0_33_25
*1739 FILLER_0_33_250
*1740 FILLER_0_33_261
*1741 FILLER_0_33_273
*1742 FILLER_0_33_279
*1743 FILLER_0_33_285
*1744 FILLER_0_33_3
*1745 FILLER_0_33_306
*1746 FILLER_0_33_332
*1747 FILLER_0_33_34
*1748 FILLER_0_33_42
*1749 FILLER_0_33_54
*1750 FILLER_0_33_57
*1751 FILLER_0_33_65
*1752 FILLER_0_33_77
*1753 FILLER_0_33_89
*1754 FILLER_0_34_103
*1755 FILLER_0_34_11
*1756 FILLER_0_34_118
*1757 FILLER_0_34_158
*1758 FILLER_0_34_170
*1759 FILLER_0_34_182