*SPEF "ieee 1481-1999"
*DESIGN "tt_um_minibyte"
*DATE "08:33:57 Friday April 19, 2024"
*VENDOR "The OpenROAD Project"
*PROGRAM "OpenROAD"
*VERSION "0889970d1790a2617e69f253221b8bd7626e51dc"
*DESIGN_FLOW "NAME_SCOPE LOCAL" "PIN_CAP NONE"
*DIVIDER /
*DELIMITER :
*BUS_DELIMITER []
*T_UNIT 1 NS
*C_UNIT 1 PF
*R_UNIT 1 OHM
*L_UNIT 1 HENRY

*NAME_MAP
*3 clk
*4 ena
*5 rst_n
*6 ui_in[0]
*7 ui_in[1]
*8 ui_in[2]
*9 ui_in[3]
*10 ui_in[4]
*11 ui_in[5]
*12 ui_in[6]
*13 ui_in[7]
*14 uio_in[0]
*15 uio_in[1]
*16 uio_in[2]
*17 uio_in[3]
*18 uio_in[4]
*19 uio_in[5]
*20 uio_in[6]
*21 uio_in[7]
*22 uio_oe[0]
*23 uio_oe[1]
*24 uio_oe[2]
*25 uio_oe[3]
*26 uio_oe[4]
*27 uio_oe[5]
*28 uio_oe[6]
*29 uio_oe[7]
*30 uio_out[0]
*31 uio_out[1]
*32 uio_out[2]
*33 uio_out[3]
*34 uio_out[4]
*35 uio_out[5]
*36 uio_out[6]
*37 uio_out[7]
*38 uo_out[0]
*39 uo_out[1]
*40 uo_out[2]
*41 uo_out[3]
*42 uo_out[4]
*43 uo_out[5]
*44 uo_out[6]
*45 uo_out[7]
*46 _0000_
*47 _0001_
*48 _0002_
*49 _0003_
*50 _0004_
*51 _0005_
*52 _0006_
*53 _0007_
*54 _0008_
*55 _0009_
*56 _0010_
*57 _0011_
*58 _0012_
*59 _0013_
*60 _0014_
*61 _0015_
*62 _0016_
*63 _0017_
*64 _0018_
*65 _0019_
*66 _0020_
*67 _0021_
*68 _0022_
*69 _0023_
*70 _0024_
*71 _0025_
*72 _0026_
*73 _0027_
*74 _0028_
*75 _0029_
*76 _0030_
*77 _0031_
*78 _0032_
*79 _0033_
*80 _0034_
*81 _0035_
*82 _0036_
*83 _0037_
*84 _0038_
*85 _0039_
*86 _0040_
*87 _0041_
*88 _0042_
*89 _0043_
*90 _0044_
*91 _0045_
*92 _0046_
*93 _0047_
*94 _0048_
*95 _0049_
*96 _0050_
*97 _0051_
*98 _0052_
*99 _0053_
*100 _0054_
*101 _0055_
*102 _0056_
*103 _0057_
*104 _0058_
*105 _0059_
*106 _0060_
*107 _0061_
*108 _0062_
*109 _0063_
*110 _0064_
*111 _0065_
*112 _0066_
*113 _0067_
*114 _0068_
*115 _0069_
*116 _0070_
*117 _0071_
*118 _0072_
*119 _0073_
*120 _0074_
*121 _0075_
*122 _0076_
*123 _0077_
*124 _0078_
*125 _0079_
*126 _0080_
*127 _0081_
*128 _0082_
*129 _0083_
*130 _0084_
*131 _0085_
*132 _0086_
*133 _0087_
*134 _0088_
*135 _0089_
*136 _0090_
*137 _0091_
*138 _0092_
*139 _0093_
*140 _0094_
*141 _0095_
*142 _0096_
*143 _0097_
*144 _0098_
*145 _0099_
*146 _0100_
*147 _0101_
*148 _0102_
*149 _0103_
*150 _0104_
*151 _0105_
*152 _0106_
*153 _0107_
*154 _0108_
*155 _0109_
*156 _0110_
*157 _0111_
*158 _0112_
*159 _0113_
*160 _0114_
*161 _0115_
*162 _0116_
*163 _0117_
*164 _0118_
*165 _0119_
*166 _0120_
*167 _0121_
*168 _0122_
*169 _0123_
*170 _0124_
*171 _0125_
*172 _0126_
*173 _0127_
*174 _0128_
*175 _0129_
*176 _0130_
*177 _0131_
*178 _0132_
*179 _0133_
*180 _0134_
*181 _0135_
*182 _0136_
*183 _0137_
*184 _0138_
*185 _0139_
*186 _0140_
*187 _0141_
*188 _0142_
*189 _0143_
*190 _0144_
*191 _0145_
*192 _0146_
*193 _0147_
*194 _0148_
*195 _0149_
*196 _0150_
*197 _0151_
*198 _0152_
*199 _0153_
*200 _0154_
*201 _0155_
*202 _0156_
*203 _0157_
*204 _0158_
*205 _0159_
*206 _0160_
*207 _0161_
*208 _0162_
*209 _0163_
*210 _0164_
*211 _0165_
*212 _0166_
*213 _0167_
*214 _0168_
*215 _0169_
*216 _0170_
*217 _0171_
*218 _0172_
*219 _0173_
*220 _0174_
*221 _0175_
*222 _0176_
*223 _0177_
*224 _0178_
*225 _0179_
*226 _0180_
*227 _0181_
*228 _0182_
*229 _0183_
*230 _0184_
*231 _0185_
*232 _0186_
*233 _0187_
*234 _0188_
*235 _0189_
*236 _0190_
*237 _0191_
*238 _0192_
*239 _0193_
*240 _0194_
*241 _0195_
*242 _0196_
*243 _0197_
*244 _0198_
*245 _0199_
*246 _0200_
*247 _0201_
*248 _0202_
*249 _0203_
*250 _0204_
*251 _0205_
*252 _0206_
*253 _0207_
*254 _0208_
*255 _0209_
*256 _0210_
*257 _0211_
*258 _0212_
*259 _0213_
*260 _0214_
*261 _0215_
*262 _0216_
*263 _0217_
*264 _0218_
*265 _0219_
*266 _0220_
*267 _0221_
*268 _0222_
*269 _0223_
*270 _0224_
*271 _0225_
*272 _0226_
*273 _0227_
*274 _0228_
*275 _0229_
*276 _0230_
*277 _0231_
*278 _0232_
*279 _0233_
*280 _0234_
*281 _0235_
*282 _0236_
*283 _0237_
*284 _0238_
*285 _0239_
*286 _0240_
*287 _0241_
*288 _0242_
*289 _0243_
*290 _0244_
*291 _0245_
*292 _0246_
*293 _0247_
*294 _0248_
*295 _0249_
*296 _0250_
*297 _0251_
*298 _0252_
*299 _0253_
*300 _0254_
*301 _0255_
*302 _0256_
*303 _0257_
*304 _0258_
*305 _0259_
*306 _0260_
*307 _0261_
*308 _0262_
*309 _0263_
*310 _0264_
*311 _0265_
*312 _0266_
*313 _0267_
*314 _0268_
*315 _0269_
*316 _0270_
*317 _0271_
*318 _0272_
*319 _0273_
*320 _0274_
*321 _0275_
*322 _0276_
*323 _0277_
*324 _0278_
*325 _0279_
*326 _0280_
*327 _0281_
*328 _0282_
*329 _0283_
*330 _0284_
*331 _0285_
*332 _0286_
*333 _0287_
*334 _0288_
*335 _0289_
*336 _0290_
*337 _0291_
*338 _0292_
*339 _0293_
*340 _0294_
*341 _0295_
*342 _0296_
*343 _0297_
*344 _0298_
*345 _0299_
*346 _0300_
*347 _0301_
*348 _0302_
*349 _0303_
*350 _0304_
*351 _0305_
*352 _0306_
*353 _0307_
*354 _0308_
*355 _0309_
*356 _0310_
*357 _0311_
*358 _0312_
*359 _0313_
*360 _0314_
*361 _0315_
*362 _0316_
*363 _0317_
*364 _0318_
*365 _0319_
*366 _0320_
*367 _0321_
*368 _0322_
*369 _0323_
*370 _0324_
*371 _0325_
*372 _0326_
*373 _0327_
*374 _0328_
*375 _0329_
*376 _0330_
*377 _0331_
*378 _0332_
*379 _0333_
*380 _0334_
*381 _0335_
*382 _0336_
*383 _0337_
*384 _0338_
*385 _0339_
*386 _0340_
*387 _0341_
*388 _0342_
*389 _0343_
*390 _0344_
*391 _0345_
*392 _0346_
*393 _0347_
*394 _0348_
*395 _0349_
*396 _0350_
*397 _0351_
*398 _0352_
*399 _0353_
*400 _0354_
*401 _0355_
*402 _0356_
*403 _0357_
*404 _0358_
*405 _0359_
*406 _0360_
*407 _0361_
*408 _0362_
*409 _0363_
*410 _0364_
*411 _0365_
*412 _0366_
*413 _0367_
*414 _0368_
*415 _0369_
*416 _0370_
*417 _0371_
*418 _0372_
*419 _0373_
*420 _0374_
*421 _0375_
*422 _0376_
*423 _0377_
*424 _0378_
*425 _0379_
*426 _0380_
*427 _0381_
*428 _0382_
*429 _0383_
*430 _0384_
*431 _0385_
*432 _0386_
*433 _0387_
*434 _0388_
*435 _0389_
*436 _0390_
*437 _0391_
*438 _0392_
*439 _0393_
*440 _0394_
*441 _0395_
*442 _0396_
*443 _0397_
*444 _0398_
*445 _0399_
*446 _0400_
*447 _0401_
*448 _0402_
*449 _0403_
*450 _0404_
*451 _0405_
*452 _0406_
*453 _0407_
*454 _0408_
*455 _0409_
*456 _0410_
*457 _0411_
*458 _0412_
*459 _0413_
*460 _0414_
*461 _0415_
*462 _0416_
*463 _0417_
*464 _0418_
*465 _0419_
*466 _0420_
*467 _0421_
*468 _0422_
*469 _0423_
*470 _0424_
*471 _0425_
*472 _0426_
*473 _0427_
*474 _0428_
*475 _0429_
*476 _0430_
*477 _0431_
*478 _0432_
*479 _0433_
*480 _0434_
*481 _0435_
*482 _0436_
*483 _0437_
*484 _0438_
*485 _0439_
*486 _0440_
*487 _0441_
*488 _0442_
*489 _0443_
*490 _0444_
*491 _0445_
*492 _0446_
*493 _0447_
*494 _0448_
*495 _0449_
*496 _0450_
*497 _0451_
*498 _0452_
*499 _0453_
*500 _0454_
*501 _0455_
*502 _0456_
*503 _0457_
*504 _0458_
*505 _0459_
*506 _0460_
*507 _0461_
*508 _0462_
*509 _0463_
*510 _0464_
*511 _0465_
*512 _0466_
*513 _0467_
*514 _0468_
*515 _0469_
*516 _0470_
*517 _0471_
*518 _0472_
*519 _0473_
*520 _0474_
*521 _0475_
*522 _0476_
*523 _0477_
*524 _0478_
*525 _0479_
*526 _0480_
*527 _0481_
*528 _0482_
*529 _0483_
*530 _0484_
*531 _0485_
*532 _0486_
*533 _0487_
*534 _0488_
*535 _0489_
*536 _0490_
*537 _0491_
*538 _0492_
*539 _0493_
*540 _0494_
*541 _0495_
*542 _0496_
*543 _0497_
*544 _0498_
*545 _0499_
*546 _0500_
*547 _0501_
*548 _0502_
*549 _0503_
*550 _0504_
*551 _0505_
*552 _0506_
*553 _0507_
*554 _0508_
*555 _0509_
*556 _0510_
*557 _0511_
*558 _0512_
*559 _0513_
*560 _0514_
*561 _0515_
*562 _0516_
*563 _0517_
*564 _0518_
*565 _0519_
*566 _0520_
*567 _0521_
*568 _0522_
*569 _0523_
*570 _0524_
*571 _0525_
*572 _0526_
*573 _0527_
*574 _0528_
*575 _0529_
*576 _0530_
*577 _0531_
*578 _0532_
*579 _0533_
*580 _0534_
*581 _0535_
*582 _0536_
*583 _0537_
*584 _0538_
*585 _0539_
*586 _0540_
*587 _0541_
*588 _0542_
*589 _0543_
*590 _0544_
*591 _0545_
*592 _0546_
*593 _0547_
*594 _0548_
*595 _0549_
*596 _0550_
*597 _0551_
*598 _0552_
*599 _0553_
*600 _0554_
*601 _0555_
*602 _0556_
*603 _0557_
*604 _0558_
*605 _0559_
*606 _0560_
*607 _0561_
*608 _0562_
*609 _0563_
*610 _0564_
*611 _0565_
*612 _0566_
*613 _0567_
*614 _0568_
*615 _0569_
*616 _0570_
*617 _0571_
*618 _0572_
*619 _0573_
*620 _0574_
*621 _0575_
*622 _0576_
*623 _0577_
*624 _0578_
*625 _0579_
*626 _0580_
*627 _0581_
*628 _0582_
*629 _0583_
*630 _0584_
*631 _0585_
*632 _0586_
*633 _0587_
*634 _0588_
*635 _0589_
*636 _0590_
*637 _0591_
*638 _0592_
*639 _0593_
*640 _0594_
*641 _0595_
*642 _0596_
*643 _0597_
*644 _0598_
*645 _0599_
*646 _0600_
*647 _0601_
*648 _0602_
*649 _0603_
*650 _0604_
*651 _0605_
*652 _0606_
*653 _0607_
*654 _0608_
*655 _0609_
*656 _0610_
*657 _0611_
*658 _0612_
*659 _0613_
*660 _0614_
*661 _0615_
*662 _0616_
*663 _0617_
*664 _0618_
*665 _0619_
*666 _0620_
*667 _0621_
*668 _0622_
*669 _0623_
*670 _0624_
*671 _0625_
*672 _0626_
*673 _0627_
*674 _0628_
*675 _0629_
*676 _0630_
*677 _0631_
*678 _0632_
*679 _0633_
*680 _0634_
*681 _0635_
*682 _0636_
*683 _0637_
*684 _0638_
*685 _0639_
*686 _0640_
*687 _0641_
*688 _0642_
*689 _0643_
*690 _0644_
*691 _0645_
*692 _0646_
*693 _0647_
*694 _0648_
*695 _0649_
*696 _0650_
*697 _0651_
*698 _0652_
*699 _0653_
*700 _0654_
*701 _0655_
*702 _0656_
*703 _0657_
*704 _0658_
*705 _0659_
*706 _0660_
*707 _0661_
*708 _0662_
*709 _0663_
*710 _0664_
*711 _0665_
*712 _0666_
*713 _0667_
*714 _0668_
*715 _0669_
*716 _0670_
*717 _0671_
*718 _0672_
*719 _0673_
*720 _0674_
*721 _0675_
*722 _0676_
*723 _0677_
*724 _0678_
*725 _0679_
*726 _0680_
*727 _0681_
*728 _0682_
*729 _0683_
*730 _0684_
*731 _0685_
*732 _0686_
*733 _0687_
*734 _0688_
*735 _0689_
*736 _0690_
*737 _0691_
*738 _0692_
*739 _0693_
*740 _0694_
*741 _0695_
*742 _0696_
*743 _0697_
*744 _0698_
*745 _0699_
*746 _0700_
*747 _0701_
*748 _0702_
*749 _0703_
*750 _0704_
*751 _0705_
*752 _0706_
*753 _0707_
*754 _0708_
*755 _0709_
*756 _0710_
*757 _0711_
*758 _0712_
*759 _0713_
*760 _0714_
*761 _0715_
*762 _0716_
*763 _0717_
*764 _0718_
*765 _0719_
*766 _0720_
*767 _0721_
*768 _0722_
*769 _0723_
*770 _0724_
*771 _0725_
*772 _0726_
*773 _0727_
*774 _0728_
*775 _0729_
*776 _0730_
*777 _0731_
*778 _0732_
*779 _0733_
*780 _0734_
*781 _0735_
*782 _0736_
*783 _0737_
*784 _0738_
*785 _0739_
*786 _0740_
*787 _0741_
*788 _0742_
*789 _0743_
*790 _0744_
*791 _0745_
*792 _0746_
*793 _0747_
*794 _0748_
*795 _0749_
*796 _0750_
*797 _0751_
*798 _0752_
*799 _0753_
*800 _0754_
*801 _0755_
*802 _0756_
*803 _0757_
*804 _0758_
*805 _0759_
*806 _0760_
*807 _0761_
*808 _0762_
*809 _0763_
*810 _0764_
*811 _0765_
*812 _0766_
*813 _0767_
*814 _0768_
*815 _0769_
*816 _0770_
*817 _0771_
*818 _0772_
*819 _0773_
*820 _0774_
*821 _0775_
*822 _0776_
*823 _0777_
*824 _0778_
*825 _0779_
*826 _0780_
*827 _0781_
*828 _0782_
*829 _0783_
*830 _0784_
*831 _0785_
*832 _0786_
*833 _0787_
*834 _0788_
*835 _0789_
*836 _0790_
*837 _0791_
*838 _0792_
*839 _0793_
*840 _0794_
*841 _0795_
*842 _0796_
*843 _0797_
*844 _0798_
*845 _0799_
*846 _0800_
*847 _0801_
*848 _0802_
*849 _0803_
*850 _0804_
*851 _0805_
*852 _0806_
*853 _0807_
*854 _0808_
*855 _0809_
*856 _0810_
*857 _0811_
*858 _0812_
*859 _0813_
*860 _0814_
*861 _0815_
*862 _0816_
*863 _0817_
*864 _0818_
*865 _0819_
*866 _0820_
*867 _0821_
*868 _0822_
*869 _0823_
*870 _0824_
*871 _0825_
*872 _0826_
*873 _0827_
*874 _0828_
*875 _0829_
*876 _0830_
*877 _0831_
*878 _0832_
*879 _0833_
*880 _0834_
*881 _0835_
*882 _0836_
*883 _0837_
*884 _0838_
*885 _0839_
*886 _0840_
*887 _0841_
*888 _0842_
*889 _0843_
*890 _0844_
*891 _0845_
*892 _0846_
*893 _0847_
*894 _0848_
*895 _0849_
*896 _0850_
*897 _0851_
*898 _0852_
*899 _0853_
*900 _0854_
*901 _0855_
*902 _0856_
*903 _0857_
*904 _0858_
*905 _0859_
*906 _0860_
*907 _0861_
*908 _0862_
*909 _0863_
*910 _0864_
*911 _0865_
*912 _0866_
*913 _0867_
*914 _0868_
*915 _0869_
*916 _0870_
*917 _0871_
*918 _0872_
*919 _0873_
*920 _0874_
*921 _0875_
*922 _0876_
*923 _0877_
*924 _0878_
*925 _0879_
*926 _0880_
*927 _0881_
*928 _0882_
*929 _0883_
*930 _0884_
*931 _0885_
*932 _0886_
*933 _0887_
*934 _0888_
*935 _0889_
*936 _0890_
*937 _0891_
*938 _0892_
*939 _0893_
*940 _0894_
*941 _0895_
*942 _0896_
*943 _0897_
*944 _0898_
*945 _0899_
*946 _0900_
*947 _0901_
*948 _0902_
*949 _0903_
*950 _0904_
*951 _0905_
*952 _0906_
*953 _0907_
*954 _0908_
*955 _0909_
*956 _0910_
*957 _0911_
*958 _0912_
*959 _0913_
*960 _0914_
*961 _0915_
*962 _0916_
*963 _0917_
*964 _0918_
*965 _0919_
*966 _0920_
*967 _0921_
*968 _0922_
*969 _0923_
*970 _0924_
*971 _0925_
*972 _0926_
*973 _0927_
*974 _0928_
*975 _0929_
*976 _0930_
*977 _0931_
*978 _0932_
*979 _0933_
*980 _0934_
*981 _0935_
*982 _0936_
*983 _0937_
*984 _0938_
*985 _0939_
*986 _0940_
*987 _0941_
*988 _0942_
*989 _0943_
*990 _0944_
*991 _0945_
*992 _0946_
*993 _0947_
*994 _0948_
*995 _0949_
*996 _0950_
*997 _0951_
*998 _0952_
*999 _0953_
*1000 _0954_
*1001 _0955_
*1002 _0956_
*1003 _0957_
*1004 _0958_
*1005 _0959_
*1006 _0960_
*1007 _0961_
*1008 _0962_
*1009 _0963_
*1010 _0964_
*1011 _0965_
*1012 _0966_
*1013 _0967_
*1014 _0968_
*1015 _0969_
*1016 _0970_
*1017 _0971_
*1018 _0972_
*1019 _0973_
*1020 _0974_
*1021 _0975_
*1022 _0976_
*1023 _0977_
*1024 _0978_
*1025 _0979_
*1026 _0980_
*1027 _0981_
*1028 _0982_
*1029 _0983_
*1030 _0984_
*1031 _0985_
*1032 _0986_
*1033 _0987_
*1034 _0988_
*1035 _0989_
*1036 _0990_
*1037 _0991_
*1038 _0992_
*1039 _0993_
*1040 _0994_
*1041 _0995_
*1042 _0996_
*1043 _0997_
*1044 _0998_
*1045 _0999_
*1046 _1000_
*1047 _1001_
*1048 _1002_
*1049 _1003_
*1050 _1004_
*1051 _1005_
*1052 _1006_
*1053 _1007_
*1054 _1008_
*1055 _1009_
*1056 _1010_
*1057 _1011_
*1058 _1012_
*1059 _1013_
*1060 _1014_
*1061 _1015_
*1062 _1016_
*1063 _1017_
*1064 _1018_
*1065 _1019_
*1066 _1020_
*1067 _1021_
*1068 _1022_
*1069 _1023_
*1070 _1024_
*1071 _1025_
*1072 _1026_
*1073 _1027_
*1074 _1028_
*1075 _1029_
*1076 _1030_
*1077 _1031_
*1078 _1032_
*1079 _1033_
*1080 _1034_
*1081 _1035_
*1082 _1036_
*1083 _1037_
*1084 _1038_
*1085 _1039_
*1086 _1040_
*1087 _1041_
*1088 _1042_
*1089 _1043_
*1090 _1044_
*1091 _1045_
*1092 _1046_
*1093 _1047_
*1094 _1048_
*1095 _1049_
*1096 _1050_
*1097 _1051_
*1098 _1052_
*1099 _1053_
*1100 _1054_
*1101 _1055_
*1102 _1056_
*1103 _1057_
*1104 _1058_
*1105 _1059_
*1106 _1060_
*1107 _1061_
*1108 _1062_
*1109 _1063_
*1110 _1064_
*1111 _1065_
*1112 _1066_
*1113 _1067_
*1114 _1068_
*1115 _1069_
*1116 _1070_
*1117 _1071_
*1118 _1072_
*1119 clknet_0_clk
*1120 clknet_3_0__leaf_clk
*1121 clknet_3_1__leaf_clk
*1122 clknet_3_2__leaf_clk
*1123 clknet_3_3__leaf_clk
*1124 clknet_3_4__leaf_clk
*1125 clknet_3_5__leaf_clk
*1126 clknet_3_6__leaf_clk
*1127 clknet_3_7__leaf_clk
*1128 cpu\.addr_mux\.a_in\[0\]
*1129 cpu\.addr_mux\.a_in\[1\]
*1130 cpu\.addr_mux\.a_in\[2\]
*1131 cpu\.addr_mux\.a_in\[3\]
*1132 cpu\.addr_mux\.a_in\[4\]
*1133 cpu\.addr_mux\.a_in\[5\]
*1134 cpu\.addr_mux\.a_in\[6\]
*1135 cpu\.addr_mux\.b_in\[0\]
*1136 cpu\.addr_mux\.b_in\[1\]
*1137 cpu\.addr_mux\.b_in\[2\]
*1138 cpu\.addr_mux\.b_in\[3\]
*1139 cpu\.addr_mux\.b_in\[4\]
*1140 cpu\.addr_mux\.b_in\[5\]
*1141 cpu\.addr_mux\.b_in\[6\]
*1142 cpu\.alu\.a_in\[0\]
*1143 cpu\.alu\.a_in\[1\]
*1144 cpu\.alu\.a_in\[2\]
*1145 cpu\.alu\.a_in\[3\]
*1146 cpu\.alu\.a_in\[4\]
*1147 cpu\.alu\.a_in\[5\]
*1148 cpu\.alu\.a_in\[6\]
*1149 cpu\.alu\.a_in\[7\]
*1150 cpu\.alu\.flags_zn_out\[0\]
*1151 cpu\.ccr_zn_buss\[0\]
*1152 cpu\.ccr_zn_buss\[1\]
*1153 cpu\.ctrl_drive_out
*1154 cpu\.ctrl_we_out
*1155 cpu\.cu\.curr_state\[0\]
*1156 cpu\.cu\.curr_state\[1\]
*1157 cpu\.cu\.curr_state\[2\]
*1158 cpu\.cu\.curr_state\[3\]
*1159 cpu\.cu\.curr_state\[4\]
*1160 cpu\.cu\.curr_state\[5\]
*1161 cpu\.cu\.curr_state\[6\]
*1162 cpu\.cu\.ir_op_buss_in\[0\]
*1163 cpu\.cu\.ir_op_buss_in\[1\]
*1164 cpu\.cu\.ir_op_buss_in\[2\]
*1165 cpu\.cu\.ir_op_buss_in\[3\]
*1166 cpu\.cu\.ir_op_buss_in\[4\]
*1167 cpu\.cu\.ir_op_buss_in\[5\]
*1168 cpu\.cu\.ir_op_buss_in\[6\]
*1169 cpu\.cu\.ir_op_buss_in\[7\]
*1170 net1
*1171 net10
*1172 net11
*1173 net12
*1174 net13
*1175 net14
*1176 net15
*1177 net16
*1178 net17
*1179 net18
*1180 net19
*1181 net2
*1182 net20
*1183 net21
*1184 net22
*1185 net23
*1186 net24
*1187 net25
*1188 net26
*1189 net27
*1190 net28
*1191 net29
*1192 net3
*1193 net30
*1194 net31
*1195 net32
*1196 net33
*1197 net34
*1198 net35
*1199 net36
*1200 net37
*1201 net38
*1202 net39
*1203 net4
*1204 net40
*1205 net41
*1206 net42
*1207 net43
*1208 net44
*1209 net45
*1210 net46
*1211 net47
*1212 net48
*1213 net49
*1214 net5
*1215 net50
*1216 net51
*1217 net52
*1218 net53
*1219 net54
*1220 net55
*1221 net56
*1222 net57
*1223 net58
*1224 net59
*1225 net6
*1226 net60
*1227 net61
*1228 net62
*1229 net63
*1230 net64
*1231 net65
*1232 net66
*1233 net67
*1234 net68
*1235 net69
*1236 net7
*1237 net70
*1238 net71
*1239 net72
*1240 net73
*1241 net74
*1242 net75
*1243 net76
*1244 net77
*1245 net78
*1246 net79
*1247 net8
*1248 net80
*1249 net81
*1250 net82
*1251 net83
*1252 net84
*1253 net85
*1254 net86
*1255 net87
*1256 net88
*1257 net89
*1258 net9
*1259 net90
*1260 net91
*1261 net92
*1262 net93
*1263 net94
*1264 net95
*1265 ram\.r0\.reg_out\[0\]
*1266 ram\.r0\.reg_out\[1\]
*1267 ram\.r0\.reg_out\[2\]
*1268 ram\.r0\.reg_out\[3\]
*1269 ram\.r0\.reg_out\[4\]
*1270 ram\.r0\.reg_out\[5\]
*1271 ram\.r0\.reg_out\[6\]
*1272 ram\.r0\.reg_out\[7\]
*1273 ram\.r1\.reg_out\[0\]
*1274 ram\.r1\.reg_out\[1\]
*1275 ram\.r1\.reg_out\[2\]
*1276 ram\.r1\.reg_out\[3\]
*1277 ram\.r1\.reg_out\[4\]
*1278 ram\.r1\.reg_out\[5\]
*1279 ram\.r1\.reg_out\[6\]
*1280 ram\.r1\.reg_out\[7\]
*1281 ram\.r2\.reg_out\[0\]
*1282 ram\.r2\.reg_out\[1\]
*1283 ram\.r2\.reg_out\[2\]
*1284 ram\.r2\.reg_out\[3\]
*1285 ram\.r2\.reg_out\[4\]
*1286 ram\.r2\.reg_out\[5\]
*1287 ram\.r2\.reg_out\[6\]
*1288 ram\.r2\.reg_out\[7\]
*1289 ram\.r3\.reg_out\[0\]
*1290 ram\.r3\.reg_out\[1\]
*1291 ram\.r3\.reg_out\[2\]
*1292 ram\.r3\.reg_out\[3\]
*1293 ram\.r3\.reg_out\[4\]
*1294 ram\.r3\.reg_out\[5\]
*1295 ram\.r3\.reg_out\[6\]
*1296 ram\.r3\.reg_out\[7\]
*1297 ram\.r4\.reg_out\[0\]
*1298 ram\.r4\.reg_out\[1\]
*1299 ram\.r4\.reg_out\[2\]
*1300 ram\.r4\.reg_out\[3\]
*1301 ram\.r4\.reg_out\[4\]
*1302 ram\.r4\.reg_out\[5\]
*1303 ram\.r4\.reg_out\[6\]
*1304 ram\.r4\.reg_out\[7\]
*1305 ram\.r5\.reg_out\[0\]
*1306 ram\.r5\.reg_out\[1\]
*1307 ram\.r5\.reg_out\[2\]
*1308 ram\.r5\.reg_out\[3\]
*1309 ram\.r5\.reg_out\[4\]
*1310 ram\.r5\.reg_out\[5\]
*1311 ram\.r5\.reg_out\[6\]
*1312 ram\.r5\.reg_out\[7\]
*1313 ram\.r6\.reg_out\[0\]
*1314 ram\.r6\.reg_out\[1\]
*1315 ram\.r6\.reg_out\[2\]
*1316 ram\.r6\.reg_out\[3\]
*1317 ram\.r6\.reg_out\[4\]
*1318 ram\.r6\.reg_out\[5\]
*1319 ram\.r6\.reg_out\[6\]
*1320 ram\.r6\.reg_out\[7\]
*1321 ram\.r7\.reg_out\[0\]
*1322 ram\.r7\.reg_out\[1\]
*1323 ram\.r7\.reg_out\[2\]
*1324 ram\.r7\.reg_out\[3\]
*1325 ram\.r7\.reg_out\[4\]
*1326 ram\.r7\.reg_out\[5\]
*1327 ram\.r7\.reg_out\[6\]
*1328 ram\.r7\.reg_out\[7\]
*1329 ANTENNA_1
*1330 ANTENNA_2
*1331 ANTENNA_3
*1332 ANTENNA_4
*1333 FILLER_0_0_103
*1334 FILLER_0_0_110
*1335 FILLER_0_0_113
*1336 FILLER_0_0_123
*1337 FILLER_0_0_133
*1338 FILLER_0_0_139
*1339 FILLER_0_0_141
*1340 FILLER_0_0_15
*1341 FILLER_0_0_153
*1342 FILLER_0_0_162
*1343 FILLER_0_0_172
*1344 FILLER_0_0_189
*1345 FILLER_0_0_195
*1346 FILLER_0_0_210
*1347 FILLER_0_0_218
*1348 FILLER_0_0_223
*1349 FILLER_0_0_225
*1350 FILLER_0_0_237
*1351 FILLER_0_0_251
*1352 FILLER_0_0_253
*1353 FILLER_0_0_261
*1354 FILLER_0_0_27
*1355 FILLER_0_0_270
*1356 FILLER_0_0_278
*1357 FILLER_0_0_29
*1358 FILLER_0_0_292
*1359 FILLER_0_0_3
*1360 FILLER_0_0_300
*1361 FILLER_0_0_306
*1362 FILLER_0_0_309
*1363 FILLER_0_0_321
*1364 FILLER_0_0_333
*1365 FILLER_0_0_41
*1366 FILLER_0_0_53
*1367 FILLER_0_0_57
*1368 FILLER_0_0_69
*1369 FILLER_0_0_73
*1370 FILLER_0_0_80
*1371 FILLER_0_0_97
*1372 FILLER_0_10_120
*1373 FILLER_0_10_126
*1374 FILLER_0_10_133
*1375 FILLER_0_10_146
*1376 FILLER_0_10_157
*1377 FILLER_0_10_167
*1378 FILLER_0_10_188
*1379 FILLER_0_10_222
*1380 FILLER_0_10_248
*1381 FILLER_0_10_253
*1382 FILLER_0_10_257
*1383 FILLER_0_10_26
*1384 FILLER_0_10_288
*1385 FILLER_0_10_29
*1386 FILLER_0_10_297
*1387 FILLER_0_10_3
*1388 FILLER_0_10_309
*1389 FILLER_0_10_47
*1390 FILLER_0_10_62
*1391 FILLER_0_10_7
*1392 FILLER_0_10_73
*1393 FILLER_0_10_83
*1394 FILLER_0_10_85
*1395 FILLER_0_10_97
*1396 FILLER_0_11_111
*1397 FILLER_0_11_113
*1398 FILLER_0_11_140
*1399 FILLER_0_11_162
*1400 FILLER_0_11_220
*1401 FILLER_0_11_247
*1402 FILLER_0_11_264
*1403 FILLER_0_11_27
*1404 FILLER_0_11_270
*1405 FILLER_0_11_277
*1406 FILLER_0_11_281
*1407 FILLER_0_11_293
*1408 FILLER_0_11_297
*1409 FILLER_0_11_3
*1410 FILLER_0_11_304
*1411 FILLER_0_11_317
*1412 FILLER_0_11_329
*1413 FILLER_0_11_45
*1414 FILLER_0_11_77
*1415 FILLER_0_11_88
*1416 FILLER_0_12_105
*1417 FILLER_0_12_115
*1418 FILLER_0_12_127
*1419 FILLER_0_12_141
*1420 FILLER_0_12_146
*1421 FILLER_0_12_164
*1422 FILLER_0_12_172
*1423 FILLER_0_12_178
*1424 FILLER_0_12_20
*1425 FILLER_0_12_200
*1426 FILLER_0_12_208
*1427 FILLER_0_12_220
*1428 FILLER_0_12_245
*1429 FILLER_0_12_251
*1430 FILLER_0_12_260
*1431 FILLER_0_12_280
*1432 FILLER_0_12_29
*1433 FILLER_0_12_3
*1434 FILLER_0_12_304
*1435 FILLER_0_12_322
*1436 FILLER_0_12_330
*1437 FILLER_0_12_334
*1438 FILLER_0_12_58
*1439 FILLER_0_12_64
*1440 FILLER_0_12_68
*1441 FILLER_0_12_72
*1442 FILLER_0_12_78
*1443 FILLER_0_12_92
*1444 FILLER_0_12_97
*1445 FILLER_0_13_121
*1446 FILLER_0_13_140
*1447 FILLER_0_13_156
*1448 FILLER_0_13_166
*1449 FILLER_0_13_177
*1450 FILLER_0_13_187
*1451 FILLER_0_13_199
*1452 FILLER_0_13_220
*1453 FILLER_0_13_237
*1454 FILLER_0_13_245
*1455 FILLER_0_13_264
*1456 FILLER_0_13_273
*1457 FILLER_0_13_279
*1458 FILLER_0_13_281
*1459 FILLER_0_13_285
*1460 FILLER_0_13_289
*1461 FILLER_0_13_3
*1462 FILLER_0_13_30
*1463 FILLER_0_13_307
*1464 FILLER_0_13_315
*1465 FILLER_0_13_333
*1466 FILLER_0_13_54
*1467 FILLER_0_13_66
*1468 FILLER_0_13_87
*1469 FILLER_0_14_109
*1470 FILLER_0_14_130
*1471 FILLER_0_14_138
*1472 FILLER_0_14_141
*1473 FILLER_0_14_149
*1474 FILLER_0_14_163
*1475 FILLER_0_14_171
*1476 FILLER_0_14_197
*1477 FILLER_0_14_214
*1478 FILLER_0_14_22
*1479 FILLER_0_14_222
*1480 FILLER_0_14_274
*1481 FILLER_0_14_286
*1482 FILLER_0_14_295
*1483 FILLER_0_14_3
*1484 FILLER_0_14_305
*1485 FILLER_0_14_309
*1486 FILLER_0_14_317
*1487 FILLER_0_14_332
*1488 FILLER_0_14_35
*1489 FILLER_0_14_41
*1490 FILLER_0_14_47
*1491 FILLER_0_14_55
*1492 FILLER_0_14_62
*1493 FILLER_0_14_68
*1494 FILLER_0_14_74
*1495 FILLER_0_14_82
*1496 FILLER_0_14_85
*1497 FILLER_0_14_97
*1498 FILLER_0_15_105
*1499 FILLER_0_15_11
*1500 FILLER_0_15_111
*1501 FILLER_0_15_151
*1502 FILLER_0_15_159
*1503 FILLER_0_15_163
*1504 FILLER_0_15_167
*1505 FILLER_0_15_169
*1506 FILLER_0_15_195
*1507 FILLER_0_15_229
*1508 FILLER_0_15_235
*1509 FILLER_0_15_239
*1510 FILLER_0_15_248
*1511 FILLER_0_15_257
*1512 FILLER_0_15_269
*1513 FILLER_0_15_281
*1514 FILLER_0_15_289
*1515 FILLER_0_15_29
*1516 FILLER_0_15_3
*1517 FILLER_0_15_311
*1518 FILLER_0_15_316
*1519 FILLER_0_15_325
*1520 FILLER_0_15_48
*1521 FILLER_0_15_64
*1522 FILLER_0_15_7
*1523 FILLER_0_15_77
*1524 FILLER_0_15_91
*1525 FILLER_0_15_97
*1526 FILLER_0_16_105
*1527 FILLER_0_16_118
*1528 FILLER_0_16_124
*1529 FILLER_0_16_136
*1530 FILLER_0_16_148
*1531 FILLER_0_16_167
*1532 FILLER_0_16_175
*1533 FILLER_0_16_189
*1534 FILLER_0_16_19
*1535 FILLER_0_16_195
*1536 FILLER_0_16_197
*1537 FILLER_0_16_208
*1538 FILLER_0_16_214
*1539 FILLER_0_16_235
*1540 FILLER_0_16_246
*1541 FILLER_0_16_253
*1542 FILLER_0_16_262
*1543 FILLER_0_16_27
*1544 FILLER_0_16_282
*1545 FILLER_0_16_3
*1546 FILLER_0_16_309
*1547 FILLER_0_16_314
*1548 FILLER_0_16_38
*1549 FILLER_0_16_49
*1550 FILLER_0_16_58
*1551 FILLER_0_16_66
*1552 FILLER_0_16_70
*1553 FILLER_0_16_92
*1554 FILLER_0_17_107
*1555 FILLER_0_17_11
*1556 FILLER_0_17_111
*1557 FILLER_0_17_136
*1558 FILLER_0_17_148
*1559 FILLER_0_17_156
*1560 FILLER_0_17_16
*1561 FILLER_0_17_169
*1562 FILLER_0_17_191
*1563 FILLER_0_17_213
*1564 FILLER_0_17_222
*1565 FILLER_0_17_23
*1566 FILLER_0_17_260
*1567 FILLER_0_17_264
*1568 FILLER_0_17_294
*1569 FILLER_0_17_3
*1570 FILLER_0_17_322
*1571 FILLER_0_17_328
*1572 FILLER_0_17_334
*1573 FILLER_0_17_44
*1574 FILLER_0_17_51
*1575 FILLER_0_17_55
*1576 FILLER_0_17_61
*1577 FILLER_0_17_69
*1578 FILLER_0_17_73
*1579 FILLER_0_17_87
*1580 FILLER_0_17_95
*1581 FILLER_0_18_11
*1582 FILLER_0_18_116
*1583 FILLER_0_18_131
*1584 FILLER_0_18_139
*1585 FILLER_0_18_154
*1586 FILLER_0_18_194
*1587 FILLER_0_18_197
*1588 FILLER_0_18_23
*1589 FILLER_0_18_233
*1590 FILLER_0_18_246
*1591 FILLER_0_18_27
*1592 FILLER_0_18_279
*1593 FILLER_0_18_29
*1594 FILLER_0_18_293
*1595 FILLER_0_18_3
*1596 FILLER_0_18_305
*1597 FILLER_0_18_35
*1598 FILLER_0_18_81
*1599 FILLER_0_18_89
*1600 FILLER_0_18_97
*1601 FILLER_0_19_104
*1602 FILLER_0_19_122
*1603 FILLER_0_19_149
*1604 FILLER_0_19_164
*1605 FILLER_0_19_169
*1606 FILLER_0_19_225
*1607 FILLER_0_19_245
*1608 FILLER_0_19_276
*1609 FILLER_0_19_281
*1610 FILLER_0_19_305
*1611 FILLER_0_19_311
*1612 FILLER_0_19_321
*1613 FILLER_0_19_34
*1614 FILLER_0_19_44
*1615 FILLER_0_19_48
*1616 FILLER_0_19_53
*1617 FILLER_0_19_60
*1618 FILLER_0_19_66
*1619 FILLER_0_19_71
*1620 FILLER_0_19_83
*1621 FILLER_0_19_89
*1622 FILLER_0_19_9
*1623 FILLER_0_19_98
*1624 FILLER_0_1_107
*1625 FILLER_0_1_111
*1626 FILLER_0_1_132
*1627 FILLER_0_1_15
*1628 FILLER_0_1_166
*1629 FILLER_0_1_169
*1630 FILLER_0_1_184
*1631 FILLER_0_1_192
*1632 FILLER_0_1_222
*1633 FILLER_0_1_236
*1634 FILLER_0_1_240
*1635 FILLER_0_1_252
*1636 FILLER_0_1_258
*1637 FILLER_0_1_27
*1638 FILLER_0_1_271
*1639 FILLER_0_1_277
*1640 FILLER_0_1_281
*1641 FILLER_0_1_287
*1642 FILLER_0_1_291
*1643 FILLER_0_1_297
*1644 FILLER_0_1_3
*1645 FILLER_0_1_318
*1646 FILLER_0_1_330
*1647 FILLER_0_1_334
*1648 FILLER_0_1_39
*1649 FILLER_0_1_51
*1650 FILLER_0_1_57
*1651 FILLER_0_1_92
*1652 FILLER_0_20_105
*1653 FILLER_0_20_118
*1654 FILLER_0_20_133
*1655 FILLER_0_20_141
*1656 FILLER_0_20_176
*1657 FILLER_0_20_181
*1658 FILLER_0_20_191
*1659 FILLER_0_20_195
*1660 FILLER_0_20_205
*1661 FILLER_0_20_217
*1662 FILLER_0_20_229
*1663 FILLER_0_20_238
*1664 FILLER_0_20_250
*1665 FILLER_0_20_26
*1666 FILLER_0_20_261
*1667 FILLER_0_20_29
*1668 FILLER_0_20_61
*1669 FILLER_0_20_82
*1670 FILLER_0_20_85
*1671 FILLER_0_20_93
*1672 FILLER_0_20_97
*1673 FILLER_0_21_102
*1674 FILLER_0_21_106
*1675 FILLER_0_21_11
*1676 FILLER_0_21_125
*1677 FILLER_0_21_147
*1678 FILLER_0_21_160
*1679 FILLER_0_21_169
*1680 FILLER_0_21_21
*1681 FILLER_0_21_225
*1682 FILLER_0_21_246
*1683 FILLER_0_21_267
*1684 FILLER_0_21_271
*1685 FILLER_0_21_281
*1686 FILLER_0_21_287
*1687 FILLER_0_21_290
*1688 FILLER_0_21_3
*1689 FILLER_0_21_30
*1690 FILLER_0_21_304
*1691 FILLER_0_21_308
*1692 FILLER_0_21_316
*1693 FILLER_0_21_328
*1694 FILLER_0_21_334
*1695 FILLER_0_21_57
*1696 FILLER_0_21_69
*1697 FILLER_0_21_81
*1698 FILLER_0_21_89
*1699 FILLER_0_22_106
*1700 FILLER_0_22_138
*1701 FILLER_0_22_152
*1702 FILLER_0_22_161
*1703 FILLER_0_22_216
*1704 FILLER_0_22_26
*1705 FILLER_0_22_273
*1706 FILLER_0_22_29
*1707 FILLER_0_22_299
*1708 FILLER_0_22_307
*1709 FILLER_0_22_309
*1710 FILLER_0_22_326
*1711 FILLER_0_22_334
*1712 FILLER_0_22_88
*1713 FILLER_0_23_10
*1714 FILLER_0_23_162
*1715 FILLER_0_23_189
*1716 FILLER_0_23_20
*1717 FILLER_0_23_239
*1718 FILLER_0_23_24
*1719 FILLER_0_23_247
*1720 FILLER_0_23_276
*1721 FILLER_0_23_287
*1722 FILLER_0_23_3
*1723 FILLER_0_23_308
*1724 FILLER_0_23_51
*1725 FILLER_0_23_55
*1726 FILLER_0_23_57
*1727 FILLER_0_23_62
*1728 FILLER_0_24_118
*1729 FILLER_0_24_12
*1730 FILLER_0_24_141
*1731 FILLER_0_24_160
*1732 FILLER_0_24_193
*1733 FILLER_0_24_197
*1734 FILLER_0_24_229
*1735 FILLER_0_24_242
*1736 FILLER_0_24_277
*1737 FILLER_0_24_285
*1738 FILLER_0_24_298
*1739 FILLER_0_24_3
*1740 FILLER_0_24_306
*1741 FILLER_0_24_309
*1742 FILLER_0_24_327
*1743 FILLER_0_24_82
*1744 FILLER_0_24_94
*1745 FILLER_0_25_166
*1746 FILLER_0_25_169
*1747 FILLER_0_25_194
*1748 FILLER_0_25_198
*1749 FILLER_0_25_232
*1750 FILLER_0_25_25
*1751 FILLER_0_25_269
*1752 FILLER_0_25_281
*1753 FILLER_0_25_3
*1754 FILLER_0_25_50
*1755 FILLER_0_25_57
*1756 FILLER_0_25_73
*1757 FILLER_0_25_95
*1758 FILLER_0_26_150
*1759 FILLER_0_26_161
*1760 FILLER_0_26_204
*1761 FILLER_0_26_212
*1762 FILLER_0_26_251
*1763 FILLER_0_26_26
*1764 FILLER_0_26_262
*1765 FILLER_0_26_285
*1766 FILLER_0_26_29
*1767 FILLER_0_26_295
*1768 FILLER_0_26_299
*1769 FILLER_0_26_3
*1770 FILLER_0_26_320
*1771 FILLER_0_26_33
*1772 FILLER_0_26_332
*1773 FILLER_0_26_54
*1774 FILLER_0_26_76
*1775 FILLER_0_26_80
*1776 FILLER_0_27_111
*1777 FILLER_0_27_113
*1778 FILLER_0_27_13
*1779 FILLER_0_27_167
*1780 FILLER_0_27_169
*1781 FILLER_0_27_19
*1782 FILLER_0_27_199
*1783 FILLER_0_27_222
*1784 FILLER_0_27_233
*1785 FILLER_0_27_291
*1786 FILLER_0_27_3
*1787 FILLER_0_27_89
*1788 FILLER_0_27_9
*1789 FILLER_0_28_134
*1790 FILLER_0_28_195
*1791 FILLER_0_28_24
*1792 FILLER_0_28_253
*1793 FILLER_0_28_265
*1794 FILLER_0_28_292
*1795 FILLER_0_28_3
*1796 FILLER_0_28_313
*1797 FILLER_0_28_321
*1798 FILLER_0_28_330
*1799 FILLER_0_28_334
*1800 FILLER_0_28_44
*1801 FILLER_0_28_82
*1802 FILLER_0_28_85
*1803 FILLER_0_29_113
*1804 FILLER_0_29_14
*1805 FILLER_0_29_177
*1806 FILLER_0_29_18
*1807 FILLER_0_29_186
*1808 FILLER_0_29_203
*1809 FILLER_0_29_211
*1810 FILLER_0_29_217
*1811 FILLER_0_29_223
*1812 FILLER_0_29_3
*1813 FILLER_0_29_7
*1814 FILLER_0_2_106
*1815 FILLER_0_2_114
*1816 FILLER_0_2_127
*1817 FILLER_0_2_139
*1818 FILLER_0_2_141
*1819 FILLER_0_2_15
*1820 FILLER_0_2_153
*1821 FILLER_0_2_175
*1822 FILLER_0_2_197
*1823 FILLER_0_2_208
*1824 FILLER_0_2_212
*1825 FILLER_0_2_223
*1826 FILLER_0_2_236
*1827 FILLER_0_2_241
*1828 FILLER_0_2_249
*1829 FILLER_0_2_253
*1830 FILLER_0_2_258
*1831 FILLER_0_2_262
*1832 FILLER_0_2_269
*1833 FILLER_0_2_27
*1834 FILLER_0_2_292
*1835 FILLER_0_2_3
*1836 FILLER_0_2_300
*1837 FILLER_0_2_315
*1838 FILLER_0_2_327
*1839 FILLER_0_2_35
*1840 FILLER_0_2_43
*1841 FILLER_0_2_51
*1842 FILLER_0_2_63
*1843 FILLER_0_2_71
*1844 FILLER_0_2_78
*1845 FILLER_0_2_85
*1846 FILLER_0_2_93
*1847 FILLER_0_2_99
*1848 FILLER_0_30_138
*1849 FILLER_0_30_148
*1850 FILLER_0_30_158
*1851 FILLER_0_30_194
*1852 FILLER_0_30_209
*1853 FILLER_0_30_225
*1854 FILLER_0_30_231
*1855 FILLER_0_30_24
*1856 FILLER_0_30_244
*1857 FILLER_0_30_3
*1858 FILLER_0_30_305
*1859 FILLER_0_30_52
*1860 FILLER_0_30_64
*1861 FILLER_0_30_82
*1862 FILLER_0_30_85
*1863 FILLER_0_31_107
*1864 FILLER_0_31_129
*1865 FILLER_0_31_147
*1866 FILLER_0_31_176
*1867 FILLER_0_31_184
*1868 FILLER_0_31_193
*1869 FILLER_0_31_204
*1870 FILLER_0_31_212
*1871 FILLER_0_31_221
*1872 FILLER_0_31_235
*1873 FILLER_0_31_239
*1874 FILLER_0_31_259
*1875 FILLER_0_31_268