*SPEF "ieee 1481-1999"
*DESIGN "tt_um_minibyte"
*DATE "05:42:48 Sunday April 14, 2024"
*VENDOR "The OpenROAD Project"
*PROGRAM "OpenROAD"
*VERSION "0889970d1790a2617e69f253221b8bd7626e51dc"
*DESIGN_FLOW "NAME_SCOPE LOCAL" "PIN_CAP NONE"
*DIVIDER /
*DELIMITER :
*BUS_DELIMITER []
*T_UNIT 1 NS
*C_UNIT 1 PF
*R_UNIT 1 OHM
*L_UNIT 1 HENRY

*NAME_MAP
*3 clk
*4 ena
*5 rst_n
*6 ui_in[0]
*7 ui_in[1]
*8 ui_in[2]
*9 ui_in[3]
*10 ui_in[4]
*11 ui_in[5]
*12 ui_in[6]
*13 ui_in[7]
*14 uio_in[0]
*15 uio_in[1]
*16 uio_in[2]
*17 uio_in[3]
*18 uio_in[4]
*19 uio_in[5]
*20 uio_in[6]
*21 uio_in[7]
*22 uio_oe[0]
*23 uio_oe[1]
*24 uio_oe[2]
*25 uio_oe[3]
*26 uio_oe[4]
*27 uio_oe[5]
*28 uio_oe[6]
*29 uio_oe[7]
*30 uio_out[0]
*31 uio_out[1]
*32 uio_out[2]
*33 uio_out[3]
*34 uio_out[4]
*35 uio_out[5]
*36 uio_out[6]
*37 uio_out[7]
*38 uo_out[0]
*39 uo_out[1]
*40 uo_out[2]
*41 uo_out[3]
*42 uo_out[4]
*43 uo_out[5]
*44 uo_out[6]
*45 uo_out[7]
*46 _0000_
*47 _0001_
*48 _0002_
*49 _0003_
*50 _0004_
*51 _0005_
*52 _0006_
*53 _0007_
*54 _0008_
*55 _0009_
*56 _0010_
*57 _0011_
*58 _0012_
*59 _0013_
*60 _0014_
*61 _0015_
*62 _0016_
*63 _0017_
*64 _0018_
*65 _0019_
*66 _0020_
*67 _0021_
*68 _0022_
*69 _0023_
*70 _0024_
*71 _0025_
*72 _0026_
*73 _0027_
*74 _0028_
*75 _0029_
*76 _0030_
*77 _0031_
*78 _0032_
*79 _0033_
*80 _0034_
*81 _0035_
*82 _0036_
*83 _0037_
*84 _0038_
*85 _0039_
*86 _0040_
*87 _0041_
*88 _0042_
*89 _0043_
*90 _0044_
*91 _0045_
*92 _0046_
*93 _0047_
*94 _0048_
*95 _0049_
*96 _0050_
*97 _0051_
*98 _0052_
*99 _0053_
*100 _0054_
*101 _0055_
*102 _0056_
*103 _0057_
*104 _0058_
*105 _0059_
*106 _0060_
*107 _0061_
*108 _0062_
*109 _0063_
*110 _0064_
*111 _0065_
*112 _0066_
*113 _0067_
*114 _0068_
*115 _0069_
*116 _0070_
*117 _0071_
*118 _0072_
*119 _0073_
*120 _0074_
*121 _0075_
*122 _0076_
*123 _0077_
*124 _0078_
*125 _0079_
*126 _0080_
*127 _0081_
*128 _0082_
*129 _0083_
*130 _0084_
*131 _0085_
*132 _0086_
*133 _0087_
*134 _0088_
*135 _0089_
*136 _0090_
*137 _0091_
*138 _0092_
*139 _0093_
*140 _0094_
*141 _0095_
*142 _0096_
*143 _0097_
*144 _0098_
*145 _0099_
*146 _0100_
*147 _0101_
*148 _0102_
*149 _0103_
*150 _0104_
*151 _0105_
*152 _0106_
*153 _0107_
*154 _0108_
*155 _0109_
*156 _0110_
*157 _0111_
*158 _0112_
*159 _0113_
*160 _0114_
*161 _0115_
*162 _0116_
*163 _0117_
*164 _0118_
*165 _0119_
*166 _0120_
*167 _0121_
*168 _0122_
*169 _0123_
*170 _0124_
*171 _0125_
*172 _0126_
*173 _0127_
*174 _0128_
*175 _0129_
*176 _0130_
*177 _0131_
*178 _0132_
*179 _0133_
*180 _0134_
*181 _0135_
*182 _0136_
*183 _0137_
*184 _0138_
*185 _0139_
*186 _0140_
*187 _0141_
*188 _0142_
*189 _0143_
*190 _0144_
*191 _0145_
*192 _0146_
*193 _0147_
*194 _0148_
*195 _0149_
*196 _0150_
*197 _0151_
*198 _0152_
*199 _0153_
*200 _0154_
*201 _0155_
*202 _0156_
*203 _0157_
*204 _0158_
*205 _0159_
*206 _0160_
*207 _0161_
*208 _0162_
*209 _0163_
*210 _0164_
*211 _0165_
*212 _0166_
*213 _0167_
*214 _0168_
*215 _0169_
*216 _0170_
*217 _0171_
*218 _0172_
*219 _0173_
*220 _0174_
*221 _0175_
*222 _0176_
*223 _0177_
*224 _0178_
*225 _0179_
*226 _0180_
*227 _0181_
*228 _0182_
*229 _0183_
*230 _0184_
*231 _0185_
*232 _0186_
*233 _0187_
*234 _0188_
*235 _0189_
*236 _0190_
*237 _0191_
*238 _0192_
*239 _0193_
*240 _0194_
*241 _0195_
*242 _0196_
*243 _0197_
*244 _0198_
*245 _0199_
*246 _0200_
*247 _0201_
*248 _0202_
*249 _0203_
*250 _0204_
*251 _0205_
*252 _0206_
*253 _0207_
*254 _0208_
*255 _0209_
*256 _0210_
*257 _0211_
*258 _0212_
*259 _0213_
*260 _0214_
*261 _0215_
*262 _0216_
*263 _0217_
*264 _0218_
*265 _0219_
*266 _0220_
*267 _0221_
*268 _0222_
*269 _0223_
*270 _0224_
*271 _0225_
*272 _0226_
*273 _0227_
*274 _0228_
*275 _0229_
*276 _0230_
*277 _0231_
*278 _0232_
*279 _0233_
*280 _0234_
*281 _0235_
*282 _0236_
*283 _0237_
*284 _0238_
*285 _0239_
*286 _0240_
*287 _0241_
*288 _0242_
*289 _0243_
*290 _0244_
*291 _0245_
*292 _0246_
*293 _0247_
*294 _0248_
*295 _0249_
*296 _0250_
*297 _0251_
*298 _0252_
*299 _0253_
*300 _0254_
*301 _0255_
*302 _0256_
*303 _0257_
*304 _0258_
*305 _0259_
*306 _0260_
*307 _0261_
*308 _0262_
*309 _0263_
*310 _0264_
*311 _0265_
*312 _0266_
*313 _0267_
*314 _0268_
*315 _0269_
*316 _0270_
*317 _0271_
*318 _0272_
*319 _0273_
*320 _0274_
*321 _0275_
*322 _0276_
*323 _0277_
*324 _0278_
*325 _0279_
*326 _0280_
*327 _0281_
*328 _0282_
*329 _0283_
*330 _0284_
*331 _0285_
*332 _0286_
*333 _0287_
*334 _0288_
*335 _0289_
*336 _0290_
*337 _0291_
*338 _0292_
*339 _0293_
*340 _0294_
*341 _0295_
*342 _0296_
*343 _0297_
*344 _0298_
*345 _0299_
*346 _0300_
*347 _0301_
*348 _0302_
*349 _0303_
*350 _0304_
*351 _0305_
*352 _0306_
*353 _0307_
*354 _0308_
*355 _0309_
*356 _0310_
*357 _0311_
*358 _0312_
*359 _0313_
*360 _0314_
*361 _0315_
*362 _0316_
*363 _0317_
*364 _0318_
*365 _0319_
*366 _0320_
*367 _0321_
*368 _0322_
*369 _0323_
*370 _0324_
*371 _0325_
*372 _0326_
*373 _0327_
*374 _0328_
*375 _0329_
*376 _0330_
*377 _0331_
*378 _0332_
*379 _0333_
*380 _0334_
*381 _0335_
*382 _0336_
*383 _0337_
*384 _0338_
*385 _0339_
*386 _0340_
*387 _0341_
*388 _0342_
*389 _0343_
*390 _0344_
*391 _0345_
*392 _0346_
*393 _0347_
*394 _0348_
*395 _0349_
*396 _0350_
*397 _0351_
*398 _0352_
*399 _0353_
*400 _0354_
*401 _0355_
*402 _0356_
*403 _0357_
*404 _0358_
*405 _0359_
*406 _0360_
*407 _0361_
*408 _0362_
*409 _0363_
*410 _0364_
*411 _0365_
*412 _0366_
*413 _0367_
*414 _0368_
*415 _0369_
*416 _0370_
*417 _0371_
*418 _0372_
*419 _0373_
*420 _0374_
*421 _0375_
*422 _0376_
*423 _0377_
*424 _0378_
*425 _0379_
*426 _0380_
*427 _0381_
*428 _0382_
*429 _0383_
*430 _0384_
*431 _0385_
*432 _0386_
*433 _0387_
*434 _0388_
*435 _0389_
*436 _0390_
*437 _0391_
*438 _0392_
*439 _0393_
*440 _0394_
*441 _0395_
*442 _0396_
*443 _0397_
*444 _0398_
*445 _0399_
*446 _0400_
*447 _0401_
*448 _0402_
*449 _0403_
*450 _0404_
*451 _0405_
*452 _0406_
*453 _0407_
*454 _0408_
*455 _0409_
*456 _0410_
*457 _0411_
*458 _0412_
*459 _0413_
*460 _0414_
*461 _0415_
*462 _0416_
*463 _0417_
*464 _0418_
*465 _0419_
*466 _0420_
*467 _0421_
*468 _0422_
*469 _0423_
*470 _0424_
*471 _0425_
*472 _0426_
*473 _0427_
*474 _0428_
*475 _0429_
*476 _0430_
*477 _0431_
*478 _0432_
*479 _0433_
*480 _0434_
*481 _0435_
*482 _0436_
*483 _0437_
*484 _0438_
*485 _0439_
*486 _0440_
*487 _0441_
*488 _0442_
*489 _0443_
*490 _0444_
*491 _0445_
*492 _0446_
*493 _0447_
*494 _0448_
*495 _0449_
*496 _0450_
*497 _0451_
*498 _0452_
*499 _0453_
*500 _0454_
*501 _0455_
*502 _0456_
*503 _0457_
*504 _0458_
*505 _0459_
*506 _0460_
*507 _0461_
*508 _0462_
*509 _0463_
*510 _0464_
*511 _0465_
*512 _0466_
*513 _0467_
*514 _0468_
*515 _0469_
*516 _0470_
*517 _0471_
*518 _0472_
*519 _0473_
*520 _0474_
*521 _0475_
*522 _0476_
*523 _0477_
*524 _0478_
*525 _0479_
*526 _0480_
*527 _0481_
*528 _0482_
*529 _0483_
*530 _0484_
*531 _0485_
*532 _0486_
*533 _0487_
*534 _0488_
*535 _0489_
*536 _0490_
*537 _0491_
*538 _0492_
*539 _0493_
*540 _0494_
*541 _0495_
*542 _0496_
*543 _0497_
*544 _0498_
*545 _0499_
*546 _0500_
*547 _0501_
*548 _0502_
*549 _0503_
*550 _0504_
*551 _0505_
*552 _0506_
*553 _0507_
*554 _0508_
*555 _0509_
*556 _0510_
*557 _0511_
*558 _0512_
*559 _0513_
*560 _0514_
*561 _0515_
*562 _0516_
*563 _0517_
*564 _0518_
*565 _0519_
*566 _0520_
*567 _0521_
*568 _0522_
*569 _0523_
*570 _0524_
*571 _0525_
*572 _0526_
*573 _0527_
*574 _0528_
*575 _0529_
*576 _0530_
*577 _0531_
*578 _0532_
*579 _0533_
*580 _0534_
*581 _0535_
*582 _0536_
*583 _0537_
*584 _0538_
*585 _0539_
*586 _0540_
*587 _0541_
*588 _0542_
*589 _0543_
*590 _0544_
*591 _0545_
*592 _0546_
*593 _0547_
*594 _0548_
*595 _0549_
*596 _0550_
*597 _0551_
*598 _0552_
*599 _0553_
*600 _0554_
*601 _0555_
*602 _0556_
*603 _0557_
*604 _0558_
*605 _0559_
*606 _0560_
*607 _0561_
*608 _0562_
*609 _0563_
*610 _0564_
*611 _0565_
*612 _0566_
*613 _0567_
*614 _0568_
*615 _0569_
*616 _0570_
*617 _0571_
*618 _0572_
*619 _0573_
*620 _0574_
*621 _0575_
*622 _0576_
*623 _0577_
*624 _0578_
*625 _0579_
*626 _0580_
*627 _0581_
*628 _0582_
*629 _0583_
*630 _0584_
*631 _0585_
*632 _0586_
*633 _0587_
*634 _0588_
*635 _0589_
*636 _0590_
*637 _0591_
*638 _0592_
*639 _0593_
*640 _0594_
*641 _0595_
*642 _0596_
*643 _0597_
*644 _0598_
*645 _0599_
*646 _0600_
*647 _0601_
*648 _0602_
*649 _0603_
*650 _0604_
*651 _0605_
*652 _0606_
*653 _0607_
*654 _0608_
*655 _0609_
*656 _0610_
*657 _0611_
*658 _0612_
*659 _0613_
*660 _0614_
*661 _0615_
*662 _0616_
*663 _0617_
*664 _0618_
*665 _0619_
*666 _0620_
*667 _0621_
*668 _0622_
*669 _0623_
*670 _0624_
*671 _0625_
*672 _0626_
*673 _0627_
*674 _0628_
*675 _0629_
*676 _0630_
*677 _0631_
*678 _0632_
*679 _0633_
*680 _0634_
*681 _0635_
*682 _0636_
*683 _0637_
*684 _0638_
*685 _0639_
*686 _0640_
*687 _0641_
*688 _0642_
*689 _0643_
*690 _0644_
*691 _0645_
*692 _0646_
*693 _0647_
*694 _0648_
*695 _0649_
*696 _0650_
*697 _0651_
*698 _0652_
*699 _0653_
*700 _0654_
*701 _0655_
*702 _0656_
*703 _0657_
*704 _0658_
*705 _0659_
*706 _0660_
*707 _0661_
*708 _0662_
*709 _0663_
*710 _0664_
*711 _0665_
*712 _0666_
*713 _0667_
*714 _0668_
*715 _0669_
*716 _0670_
*717 _0671_
*718 _0672_
*719 _0673_
*720 _0674_
*721 _0675_
*722 _0676_
*723 _0677_
*724 _0678_
*725 _0679_
*726 _0680_
*727 _0681_
*728 _0682_
*729 _0683_
*730 _0684_
*731 _0685_
*732 _0686_
*733 _0687_
*734 _0688_
*735 _0689_
*736 _0690_
*737 _0691_
*738 _0692_
*739 _0693_
*740 _0694_
*741 _0695_
*742 _0696_
*743 _0697_
*744 _0698_
*745 _0699_
*746 _0700_
*747 _0701_
*748 _0702_
*749 _0703_
*750 _0704_
*751 _0705_
*752 _0706_
*753 _0707_
*754 _0708_
*755 _0709_
*756 _0710_
*757 _0711_
*758 _0712_
*759 _0713_
*760 _0714_
*761 _0715_
*762 _0716_
*763 _0717_
*764 _0718_
*765 _0719_
*766 _0720_
*767 _0721_
*768 _0722_
*769 _0723_
*770 _0724_
*771 _0725_
*772 _0726_
*773 _0727_
*774 _0728_
*775 _0729_
*776 _0730_
*777 _0731_
*778 _0732_
*779 _0733_
*780 _0734_
*781 _0735_
*782 _0736_
*783 _0737_
*784 _0738_
*785 _0739_
*786 _0740_
*787 _0741_
*788 _0742_
*789 _0743_
*790 _0744_
*791 _0745_
*792 _0746_
*793 _0747_
*794 _0748_
*795 _0749_
*796 _0750_
*797 _0751_
*798 _0752_
*799 _0753_
*800 _0754_
*801 _0755_
*802 _0756_
*803 _0757_
*804 _0758_
*805 _0759_
*806 _0760_
*807 _0761_
*808 _0762_
*809 _0763_
*810 _0764_
*811 _0765_
*812 _0766_
*813 _0767_
*814 _0768_
*815 _0769_
*816 _0770_
*817 _0771_
*818 _0772_
*819 _0773_
*820 _0774_
*821 _0775_
*822 _0776_
*823 _0777_
*824 _0778_
*825 _0779_
*826 _0780_
*827 _0781_
*828 _0782_
*829 _0783_
*830 _0784_
*831 _0785_
*832 _0786_
*833 _0787_
*834 _0788_
*835 _0789_
*836 _0790_
*837 _0791_
*838 _0792_
*839 _0793_
*840 _0794_
*841 _0795_
*842 _0796_
*843 _0797_
*844 _0798_
*845 _0799_
*846 _0800_
*847 _0801_
*848 _0802_
*849 _0803_
*850 _0804_
*851 _0805_
*852 _0806_
*853 _0807_
*854 _0808_
*855 _0809_
*856 _0810_
*857 _0811_
*858 _0812_
*859 _0813_
*860 _0814_
*861 _0815_
*862 _0816_
*863 _0817_
*864 _0818_
*865 _0819_
*866 _0820_
*867 _0821_
*868 _0822_
*869 _0823_
*870 _0824_
*871 _0825_
*872 _0826_
*873 _0827_
*874 _0828_
*875 _0829_
*876 _0830_
*877 _0831_
*878 _0832_
*879 _0833_
*880 _0834_
*881 _0835_
*882 _0836_
*883 _0837_
*884 _0838_
*885 _0839_
*886 _0840_
*887 _0841_
*888 _0842_
*889 _0843_
*890 _0844_
*891 _0845_
*892 _0846_
*893 _0847_
*894 _0848_
*895 _0849_
*896 _0850_
*897 _0851_
*898 clknet_0_clk
*899 clknet_2_0__leaf_clk
*900 clknet_2_1__leaf_clk
*901 clknet_2_2__leaf_clk
*902 clknet_2_3__leaf_clk
*903 cpu\.addr_mux\.a_in\[0\]
*904 cpu\.addr_mux\.a_in\[1\]
*905 cpu\.addr_mux\.a_in\[2\]
*906 cpu\.addr_mux\.a_in\[3\]
*907 cpu\.addr_mux\.a_in\[4\]
*908 cpu\.addr_mux\.a_in\[5\]
*909 cpu\.addr_mux\.a_in\[6\]
*910 cpu\.addr_mux\.b_in\[0\]
*911 cpu\.addr_mux\.b_in\[1\]
*912 cpu\.addr_mux\.b_in\[2\]
*913 cpu\.addr_mux\.b_in\[3\]
*914 cpu\.addr_mux\.b_in\[4\]
*915 cpu\.addr_mux\.b_in\[5\]
*916 cpu\.addr_mux\.b_in\[6\]
*917 cpu\.alu\.a_in\[0\]
*918 cpu\.alu\.a_in\[1\]
*919 cpu\.alu\.a_in\[2\]
*920 cpu\.alu\.a_in\[3\]
*921 cpu\.alu\.a_in\[4\]
*922 cpu\.alu\.a_in\[5\]
*923 cpu\.alu\.a_in\[6\]
*924 cpu\.alu\.a_in\[7\]
*925 cpu\.alu\.flags_zn_out\[0\]
*926 cpu\.ccr_zn_buss\[0\]
*927 cpu\.ccr_zn_buss\[1\]
*928 cpu\.ctrl_drive_out
*929 cpu\.ctrl_we_out
*930 cpu\.cu\.curr_state\[0\]
*931 cpu\.cu\.curr_state\[1\]
*932 cpu\.cu\.curr_state\[2\]
*933 cpu\.cu\.curr_state\[3\]
*934 cpu\.cu\.curr_state\[4\]
*935 cpu\.cu\.curr_state\[5\]
*936 cpu\.cu\.curr_state\[6\]
*937 cpu\.cu\.ir_op_buss_in\[0\]
*938 cpu\.cu\.ir_op_buss_in\[1\]
*939 cpu\.cu\.ir_op_buss_in\[2\]
*940 cpu\.cu\.ir_op_buss_in\[3\]
*941 cpu\.cu\.ir_op_buss_in\[4\]
*942 cpu\.cu\.ir_op_buss_in\[5\]
*943 cpu\.cu\.ir_op_buss_in\[6\]
*944 cpu\.cu\.ir_op_buss_in\[7\]
*945 net1
*946 net10
*947 net11
*948 net12
*949 net13
*950 net14
*951 net15
*952 net16
*953 net17
*954 net18
*955 net19
*956 net2
*957 net20
*958 net21
*959 net22
*960 net23
*961 net24
*962 net25
*963 net3
*964 net4
*965 net5
*966 net6
*967 net7
*968 net8
*969 net9
*970 ANTENNA_1
*971 ANTENNA_2
*972 ANTENNA_3
*973 ANTENNA_4
*974 ANTENNA_5
*975 ANTENNA_6
*976 FILLER_0_0_109
*977 FILLER_0_0_113
*978 FILLER_0_0_125
*979 FILLER_0_0_137
*980 FILLER_0_0_141
*981 FILLER_0_0_15
*982 FILLER_0_0_153
*983 FILLER_0_0_165
*984 FILLER_0_0_169
*985 FILLER_0_0_181
*986 FILLER_0_0_193
*987 FILLER_0_0_197
*988 FILLER_0_0_209
*989 FILLER_0_0_221
*990 FILLER_0_0_225
*991 FILLER_0_0_237
*992 FILLER_0_0_249
*993 FILLER_0_0_253
*994 FILLER_0_0_265
*995 FILLER_0_0_27
*996 FILLER_0_0_277
*997 FILLER_0_0_281
*998 FILLER_0_0_29
*999 FILLER_0_0_293
*1000 FILLER_0_0_3
*1001 FILLER_0_0_305
*1002 FILLER_0_0_309
*1003 FILLER_0_0_321
*1004 FILLER_0_0_333
*1005 FILLER_0_0_41
*1006 FILLER_0_0_53
*1007 FILLER_0_0_57
*1008 FILLER_0_0_69
*1009 FILLER_0_0_81
*1010 FILLER_0_0_85
*1011 FILLER_0_0_97
*1012 FILLER_0_10_121
*1013 FILLER_0_10_129
*1014 FILLER_0_10_133
*1015 FILLER_0_10_15
*1016 FILLER_0_10_155
*1017 FILLER_0_10_167
*1018 FILLER_0_10_173
*1019 FILLER_0_10_180
*1020 FILLER_0_10_191
*1021 FILLER_0_10_195
*1022 FILLER_0_10_197
*1023 FILLER_0_10_221
*1024 FILLER_0_10_225
*1025 FILLER_0_10_229
*1026 FILLER_0_10_237
*1027 FILLER_0_10_24
*1028 FILLER_0_10_253
*1029 FILLER_0_10_260
*1030 FILLER_0_10_273
*1031 FILLER_0_10_282
*1032 FILLER_0_10_29
*1033 FILLER_0_10_294
*1034 FILLER_0_10_298
*1035 FILLER_0_10_3
*1036 FILLER_0_10_305
*1037 FILLER_0_10_309
*1038 FILLER_0_10_317
*1039 FILLER_0_10_33
*1040 FILLER_0_10_331
*1041 FILLER_0_10_51
*1042 FILLER_0_10_56
*1043 FILLER_0_10_68
*1044 FILLER_0_10_76
*1045 FILLER_0_10_91
*1046 FILLER_0_10_99
*1047 FILLER_0_11_103
*1048 FILLER_0_11_111
*1049 FILLER_0_11_113
*1050 FILLER_0_11_125
*1051 FILLER_0_11_15
*1052 FILLER_0_11_160
*1053 FILLER_0_11_165
*1054 FILLER_0_11_180
*1055 FILLER_0_11_200
*1056 FILLER_0_11_208
*1057 FILLER_0_11_217
*1058 FILLER_0_11_223
*1059 FILLER_0_11_234
*1060 FILLER_0_11_253
*1061 FILLER_0_11_266
*1062 FILLER_0_11_27
*1063 FILLER_0_11_270
*1064 FILLER_0_11_278
*1065 FILLER_0_11_293
*1066 FILLER_0_11_3
*1067 FILLER_0_11_313
*1068 FILLER_0_11_333
*1069 FILLER_0_11_37
*1070 FILLER_0_11_49
*1071 FILLER_0_11_55
*1072 FILLER_0_11_63
*1073 FILLER_0_11_76
*1074 FILLER_0_11_84
*1075 FILLER_0_12_123
*1076 FILLER_0_12_130
*1077 FILLER_0_12_137
*1078 FILLER_0_12_146
*1079 FILLER_0_12_156
*1080 FILLER_0_12_160
*1081 FILLER_0_12_168
*1082 FILLER_0_12_177
*1083 FILLER_0_12_193
*1084 FILLER_0_12_210
*1085 FILLER_0_12_228
*1086 FILLER_0_12_236
*1087 FILLER_0_12_240
*1088 FILLER_0_12_253
*1089 FILLER_0_12_266
*1090 FILLER_0_12_3
*1091 FILLER_0_12_303
*1092 FILLER_0_12_307
*1093 FILLER_0_12_331
*1094 FILLER_0_12_36
*1095 FILLER_0_12_49
*1096 FILLER_0_12_59
*1097 FILLER_0_12_71
*1098 FILLER_0_12_77
*1099 FILLER_0_12_83
*1100 FILLER_0_12_85
*1101 FILLER_0_12_97
*1102 FILLER_0_13_111
*1103 FILLER_0_13_113
*1104 FILLER_0_13_130
*1105 FILLER_0_13_135
*1106 FILLER_0_13_15
*1107 FILLER_0_13_166
*1108 FILLER_0_13_180
*1109 FILLER_0_13_190
*1110 FILLER_0_13_196
*1111 FILLER_0_13_207
*1112 FILLER_0_13_213
*1113 FILLER_0_13_221
*1114 FILLER_0_13_225
*1115 FILLER_0_13_231
*1116 FILLER_0_13_243
*1117 FILLER_0_13_264
*1118 FILLER_0_13_27
*1119 FILLER_0_13_270
*1120 FILLER_0_13_281
*1121 FILLER_0_13_285
*1122 FILLER_0_13_3
*1123 FILLER_0_13_302
*1124 FILLER_0_13_31
*1125 FILLER_0_13_37
*1126 FILLER_0_13_42
*1127 FILLER_0_13_78
*1128 FILLER_0_13_92
*1129 FILLER_0_14_105
*1130 FILLER_0_14_111
*1131 FILLER_0_14_114
*1132 FILLER_0_14_125
*1133 FILLER_0_14_129
*1134 FILLER_0_14_138
*1135 FILLER_0_14_147
*1136 FILLER_0_14_15
*1137 FILLER_0_14_153
*1138 FILLER_0_14_165
*1139 FILLER_0_14_179
*1140 FILLER_0_14_197
*1141 FILLER_0_14_205
*1142 FILLER_0_14_211
*1143 FILLER_0_14_229
*1144 FILLER_0_14_23
*1145 FILLER_0_14_245
*1146 FILLER_0_14_251
*1147 FILLER_0_14_27
*1148 FILLER_0_14_274
*1149 FILLER_0_14_294
*1150 FILLER_0_14_3
*1151 FILLER_0_14_301
*1152 FILLER_0_14_307
*1153 FILLER_0_14_318
*1154 FILLER_0_14_330
*1155 FILLER_0_14_334
*1156 FILLER_0_14_34
*1157 FILLER_0_14_47
*1158 FILLER_0_14_53
*1159 FILLER_0_14_65
*1160 FILLER_0_14_77
*1161 FILLER_0_14_83
*1162 FILLER_0_14_85
*1163 FILLER_0_14_89
*1164 FILLER_0_14_98
*1165 FILLER_0_15_108
*1166 FILLER_0_15_117
*1167 FILLER_0_15_121
*1168 FILLER_0_15_127
*1169 FILLER_0_15_135
*1170 FILLER_0_15_15
*1171 FILLER_0_15_160
*1172 FILLER_0_15_186
*1173 FILLER_0_15_202
*1174 FILLER_0_15_211
*1175 FILLER_0_15_221
*1176 FILLER_0_15_225
*1177 FILLER_0_15_233
*1178 FILLER_0_15_242
*1179 FILLER_0_15_254
*1180 FILLER_0_15_262
*1181 FILLER_0_15_272
*1182 FILLER_0_15_281
*1183 FILLER_0_15_293
*1184 FILLER_0_15_3
*1185 FILLER_0_15_309
*1186 FILLER_0_15_42
*1187 FILLER_0_15_48
*1188 FILLER_0_15_53
*1189 FILLER_0_15_70
*1190 FILLER_0_15_79
*1191 FILLER_0_15_95
*1192 FILLER_0_16_116
*1193 FILLER_0_16_138
*1194 FILLER_0_16_141
*1195 FILLER_0_16_15
*1196 FILLER_0_16_157
*1197 FILLER_0_16_179
*1198 FILLER_0_16_191
*1199 FILLER_0_16_195
*1200 FILLER_0_16_203
*1201 FILLER_0_16_211
*1202 FILLER_0_16_232
*1203 FILLER_0_16_24
*1204 FILLER_0_16_246
*1205 FILLER_0_16_253
*1206 FILLER_0_16_276
*1207 FILLER_0_16_288
*1208 FILLER_0_16_29
*1209 FILLER_0_16_292
*1210 FILLER_0_16_3
*1211 FILLER_0_16_302
*1212 FILLER_0_16_309
*1213 FILLER_0_16_323
*1214 FILLER_0_16_41
*1215 FILLER_0_16_52
*1216 FILLER_0_16_58
*1217 FILLER_0_16_63
*1218 FILLER_0_16_71
*1219 FILLER_0_16_77
*1220 FILLER_0_16_83
*1221 FILLER_0_16_85
*1222 FILLER_0_17_101
*1223 FILLER_0_17_109
*1224 FILLER_0_17_133
*1225 FILLER_0_17_142
*1226 FILLER_0_17_15
*1227 FILLER_0_17_159
*1228 FILLER_0_17_167
*1229 FILLER_0_17_169
*1230 FILLER_0_17_175
*1231 FILLER_0_17_181
*1232 FILLER_0_17_202
*1233 FILLER_0_17_210
*1234 FILLER_0_17_225
*1235 FILLER_0_17_233
*1236 FILLER_0_17_240
*1237 FILLER_0_17_252
*1238 FILLER_0_17_273
*1239 FILLER_0_17_279
*1240 FILLER_0_17_288
*1241 FILLER_0_17_3
*1242 FILLER_0_17_300
*1243 FILLER_0_17_308
*1244 FILLER_0_17_323
*1245 FILLER_0_17_49
*1246 FILLER_0_17_55
*1247 FILLER_0_17_61
*1248 FILLER_0_18_112
*1249 FILLER_0_18_116
*1250 FILLER_0_18_129
*1251 FILLER_0_18_137
*1252 FILLER_0_18_15
*1253 FILLER_0_18_164
*1254 FILLER_0_18_176
*1255 FILLER_0_18_19
*1256 FILLER_0_18_194
*1257 FILLER_0_18_197
*1258 FILLER_0_18_216
*1259 FILLER_0_18_23
*1260 FILLER_0_18_237
*1261 FILLER_0_18_262
*1262 FILLER_0_18_27
*1263 FILLER_0_18_273
*1264 FILLER_0_18_278
*1265 FILLER_0_18_29
*1266 FILLER_0_18_295
*1267 FILLER_0_18_3
*1268 FILLER_0_18_307
*1269 FILLER_0_18_37
*1270 FILLER_0_18_49
*1271 FILLER_0_18_66
*1272 FILLER_0_18_79
*1273 FILLER_0_18_83
*1274 FILLER_0_18_85
*1275 FILLER_0_19_100
*1276 FILLER_0_19_111
*1277 FILLER_0_19_113
*1278 FILLER_0_19_121
*1279 FILLER_0_19_138
*1280 FILLER_0_19_146
*1281 FILLER_0_19_15
*1282 FILLER_0_19_159
*1283 FILLER_0_19_164
*1284 FILLER_0_19_185
*1285 FILLER_0_19_199
*1286 FILLER_0_19_211
*1287 FILLER_0_19_223
*1288 FILLER_0_19_225
*1289 FILLER_0_19_235
*1290 FILLER_0_19_246
*1291 FILLER_0_19_274
*1292 FILLER_0_19_281
*1293 FILLER_0_19_293
*1294 FILLER_0_19_3
*1295 FILLER_0_19_309
*1296 FILLER_0_19_329
*1297 FILLER_0_19_40
*1298 FILLER_0_19_48
*1299 FILLER_0_19_52
*1300 FILLER_0_19_66
*1301 FILLER_0_19_93
*1302 FILLER_0_1_105
*1303 FILLER_0_1_111
*1304 FILLER_0_1_113
*1305 FILLER_0_1_125
*1306 FILLER_0_1_137
*1307 FILLER_0_1_149
*1308 FILLER_0_1_15
*1309 FILLER_0_1_161
*1310 FILLER_0_1_167
*1311 FILLER_0_1_169
*1312 FILLER_0_1_181
*1313 FILLER_0_1_193
*1314 FILLER_0_1_205
*1315 FILLER_0_1_217
*1316 FILLER_0_1_223
*1317 FILLER_0_1_225
*1318 FILLER_0_1_237
*1319 FILLER_0_1_249
*1320 FILLER_0_1_261
*1321 FILLER_0_1_27
*1322 FILLER_0_1_273
*1323 FILLER_0_1_279
*1324 FILLER_0_1_281
*1325 FILLER_0_1_293
*1326 FILLER_0_1_3
*1327 FILLER_0_1_305
*1328 FILLER_0_1_317
*1329 FILLER_0_1_329
*1330 FILLER_0_1_39
*1331 FILLER_0_1_51
*1332 FILLER_0_1_55
*1333 FILLER_0_1_57
*1334 FILLER_0_1_69
*1335 FILLER_0_1_81
*1336 FILLER_0_1_93
*1337 FILLER_0_20_109
*1338 FILLER_0_20_118
*1339 FILLER_0_20_125
*1340 FILLER_0_20_129
*1341 FILLER_0_20_133
*1342 FILLER_0_20_141
*1343 FILLER_0_20_15
*1344 FILLER_0_20_151
*1345 FILLER_0_20_155
*1346 FILLER_0_20_217
*1347 FILLER_0_20_225
*1348 FILLER_0_20_233
*1349 FILLER_0_20_241
*1350 FILLER_0_20_253
*1351 FILLER_0_20_26
*1352 FILLER_0_20_263
*1353 FILLER_0_20_268
*1354 FILLER_0_20_278
*1355 FILLER_0_20_286
*1356 FILLER_0_20_29
*1357 FILLER_0_20_294
*1358 FILLER_0_20_3
*1359 FILLER_0_20_302
*1360 FILLER_0_20_309
*1361 FILLER_0_20_319
*1362 FILLER_0_20_329
*1363 FILLER_0_20_42
*1364 FILLER_0_20_76
*1365 FILLER_0_20_85
*1366 FILLER_0_20_97
*1367 FILLER_0_21_103
*1368 FILLER_0_21_141
*1369 FILLER_0_21_15
*1370 FILLER_0_21_153
*1371 FILLER_0_21_161
*1372 FILLER_0_21_167
*1373 FILLER_0_21_169
*1374 FILLER_0_21_175
*1375 FILLER_0_21_182
*1376 FILLER_0_21_190
*1377 FILLER_0_21_202
*1378 FILLER_0_21_212
*1379 FILLER_0_21_243
*1380 FILLER_0_21_259
*1381 FILLER_0_21_27
*1382 FILLER_0_21_271
*1383 FILLER_0_21_279
*1384 FILLER_0_21_289
*1385 FILLER_0_21_3
*1386 FILLER_0_21_301
*1387 FILLER_0_21_311
*1388 FILLER_0_21_319
*1389 FILLER_0_21_328
*1390 FILLER_0_21_334
*1391 FILLER_0_21_39
*1392 FILLER_0_21_51
*1393 FILLER_0_21_55
*1394 FILLER_0_21_57
*1395 FILLER_0_21_65
*1396 FILLER_0_21_73
*1397 FILLER_0_21_81
*1398 FILLER_0_21_96
*1399 FILLER_0_22_102
*1400 FILLER_0_22_114
*1401 FILLER_0_22_125
*1402 FILLER_0_22_136
*1403 FILLER_0_22_15
*1404 FILLER_0_22_183
*1405 FILLER_0_22_217
*1406 FILLER_0_22_229
*1407 FILLER_0_22_241
*1408 FILLER_0_22_249
*1409 FILLER_0_22_253
*1410 FILLER_0_22_263
*1411 FILLER_0_22_27
*1412 FILLER_0_22_275
*1413 FILLER_0_22_281
*1414 FILLER_0_22_287
*1415 FILLER_0_22_29
*1416 FILLER_0_22_297
*1417 FILLER_0_22_3
*1418 FILLER_0_22_303
*1419 FILLER_0_22_309
*1420 FILLER_0_22_317
*1421 FILLER_0_22_328
*1422 FILLER_0_22_334
*1423 FILLER_0_22_37
*1424 FILLER_0_22_55
*1425 FILLER_0_22_66
*1426 FILLER_0_22_70
*1427 FILLER_0_22_78
*1428 FILLER_0_22_85
*1429 FILLER_0_22_93
*1430 FILLER_0_23_109
*1431 FILLER_0_23_113
*1432 FILLER_0_23_15
*1433 FILLER_0_23_159
*1434 FILLER_0_23_163
*1435 FILLER_0_23_178
*1436 FILLER_0_23_190
*1437 FILLER_0_23_200
*1438 FILLER_0_23_21
*1439 FILLER_0_23_212
*1440 FILLER_0_23_241
*1441 FILLER_0_23_245
*1442 FILLER_0_23_270
*1443 FILLER_0_23_278
*1444 FILLER_0_23_29
*1445 FILLER_0_23_296
*1446 FILLER_0_23_3
*1447 FILLER_0_23_320
*1448 FILLER_0_23_325
*1449 FILLER_0_23_333
*1450 FILLER_0_23_41
*1451 FILLER_0_23_55
*1452 FILLER_0_23_57
*1453 FILLER_0_23_76
*1454 FILLER_0_23_84
*1455 FILLER_0_24_103
*1456 FILLER_0_24_111
*1457 FILLER_0_24_124
*1458 FILLER_0_24_135
*1459 FILLER_0_24_139
*1460 FILLER_0_24_14
*1461 FILLER_0_24_141
*1462 FILLER_0_24_149
*1463 FILLER_0_24_157
*1464 FILLER_0_24_165
*1465 FILLER_0_24_191
*1466 FILLER_0_24_226
*1467 FILLER_0_24_244
*1468 FILLER_0_24_26
*1469 FILLER_0_24_280
*1470 FILLER_0_24_284
*1471 FILLER_0_24_29
*1472 FILLER_0_24_296
*1473 FILLER_0_24_3
*1474 FILLER_0_24_42
*1475 FILLER_0_24_59
*1476 FILLER_0_24_71
*1477 FILLER_0_24_82
*1478 FILLER_0_24_9
*1479 FILLER_0_24_91
*1480 FILLER_0_25_106
*1481 FILLER_0_25_113
*1482 FILLER_0_25_12
*1483 FILLER_0_25_123
*1484 FILLER_0_25_145
*1485 FILLER_0_25_158
*1486 FILLER_0_25_166
*1487 FILLER_0_25_169
*1488 FILLER_0_25_181
*1489 FILLER_0_25_189
*1490 FILLER_0_25_209
*1491 FILLER_0_25_221
*1492 FILLER_0_25_225
*1493 FILLER_0_25_232
*1494 FILLER_0_25_253
*1495 FILLER_0_25_261
*1496 FILLER_0_25_269
*1497 FILLER_0_25_277
*1498 FILLER_0_25_3
*1499 FILLER_0_25_305
*1500 FILLER_0_25_319
*1501 FILLER_0_25_331
*1502 FILLER_0_25_39
*1503 FILLER_0_25_51
*1504 FILLER_0_25_55
*1505 FILLER_0_25_57
*1506 FILLER_0_25_77
*1507 FILLER_0_25_86
*1508 FILLER_0_25_98
*1509 FILLER_0_26_105
*1510 FILLER_0_26_117
*1511 FILLER_0_26_125
*1512 FILLER_0_26_13
*1513 FILLER_0_26_137
*1514 FILLER_0_26_148
*1515 FILLER_0_26_160
*1516 FILLER_0_26_172
*1517 FILLER_0_26_176
*1518 FILLER_0_26_193
*1519 FILLER_0_26_205
*1520 FILLER_0_26_209
*1521 FILLER_0_26_223
*1522 FILLER_0_26_229
*1523 FILLER_0_26_233
*1524 FILLER_0_26_237
*1525 FILLER_0_26_242
*1526 FILLER_0_26_25
*1527 FILLER_0_26_250
*1528 FILLER_0_26_253
*1529 FILLER_0_26_275
*1530 FILLER_0_26_29
*1531 FILLER_0_26_298
*1532 FILLER_0_26_3
*1533 FILLER_0_26_306
*1534 FILLER_0_26_314
*1535 FILLER_0_26_332
*1536 FILLER_0_26_34
*1537 FILLER_0_26_42
*1538 FILLER_0_26_54
*1539 FILLER_0_26_67
*1540 FILLER_0_26_7
*1541 FILLER_0_26_79
*1542 FILLER_0_26_83
*1543 FILLER_0_26_85
*1544 FILLER_0_27_107
*1545 FILLER_0_27_111
*1546 FILLER_0_27_113
*1547 FILLER_0_27_125
*1548 FILLER_0_27_141
*1549 FILLER_0_27_145
*1550 FILLER_0_27_15
*1551 FILLER_0_27_154
*1552 FILLER_0_27_174
*1553 FILLER_0_27_190
*1554 FILLER_0_27_200
*1555 FILLER_0_27_210
*1556 FILLER_0_27_216
*1557 FILLER_0_27_225
*1558 FILLER_0_27_23
*1559 FILLER_0_27_245
*1560 FILLER_0_27_257
*1561 FILLER_0_27_265
*1562 FILLER_0_27_272
*1563 FILLER_0_27_290
*1564 FILLER_0_27_3
*1565 FILLER_0_27_300
*1566 FILLER_0_27_332
*1567 FILLER_0_27_39
*1568 FILLER_0_27_43
*1569 FILLER_0_27_51
*1570 FILLER_0_27_55
*1571 FILLER_0_27_57
*1572 FILLER_0_27_61
*1573 FILLER_0_27_76
*1574 FILLER_0_27_96
*1575 FILLER_0_28_100
*1576 FILLER_0_28_106
*1577 FILLER_0_28_122
*1578 FILLER_0_28_134
*1579 FILLER_0_28_141
*1580 FILLER_0_28_15
*1581 FILLER_0_28_153
*1582 FILLER_0_28_163
*1583 FILLER_0_28_175
*1584 FILLER_0_28_185
*1585 FILLER_0_28_195
*1586 FILLER_0_28_197
*1587 FILLER_0_28_219
*1588 FILLER_0_28_227
*1589 FILLER_0_28_236
*1590 FILLER_0_28_242
*1591 FILLER_0_28_253
*1592 FILLER_0_28_27
*1593 FILLER_0_28_277
*1594 FILLER_0_28_29
*1595 FILLER_0_28_3
*1596 FILLER_0_28_303
*1597 FILLER_0_28_307
*1598 FILLER_0_28_309
*1599 FILLER_0_28_315
*1600 FILLER_0_28_327
*1601 FILLER_0_28_41
*1602 FILLER_0_28_51
*1603 FILLER_0_28_57
*1604 FILLER_0_28_61
*1605 FILLER_0_28_7
*1606 FILLER_0_28_73
*1607 FILLER_0_28_85
*1608 FILLER_0_29_10
*1609 FILLER_0_29_109
*1610 FILLER_0_29_113
*1611 FILLER_0_29_126
*1612 FILLER_0_29_135
*1613 FILLER_0_29_152
*1614 FILLER_0_29_160
*1615 FILLER_0_29_176
*1616 FILLER_0_29_180
*1617 FILLER_0_29_186
*1618 FILLER_0_29_198
*1619 FILLER_0_29_206
*1620 FILLER_0_29_214
*1621 FILLER_0_29_222
*1622 FILLER_0_29_233
*1623 FILLER_0_29_245
*1624 FILLER_0_29_254
*1625 FILLER_0_29_266
*1626 FILLER_0_29_279
*1627 FILLER_0_29_28
*1628 FILLER_0_29_281
*1629 FILLER_0_29_293
*1630 FILLER_0_29_305
*1631 FILLER_0_29_32
*1632 FILLER_0_29_40
*1633 FILLER_0_29_51
*1634 FILLER_0_29_55
*1635 FILLER_0_29_63
*1636 FILLER_0_29_76
*1637 FILLER_0_29_83
*1638 FILLER_0_29_91
*1639 FILLER_0_29_98
*1640 FILLER_0_2_109
*1641 FILLER_0_2_121
*1642 FILLER_0_2_129
*1643 FILLER_0_2_138
*1644 FILLER_0_2_141
*1645 FILLER_0_2_147
*1646 FILLER_0_2_15
*1647 FILLER_0_2_151
*1648 FILLER_0_2_166
*1649 FILLER_0_2_186
*1650 FILLER_0_2_194
*1651 FILLER_0_2_197
*1652 FILLER_0_2_206
*1653 FILLER_0_2_218
*1654 FILLER_0_2_230
*1655 FILLER_0_2_238
*1656 FILLER_0_2_249
*1657 FILLER_0_2_253
*1658 FILLER_0_2_257
*1659 FILLER_0_2_261
*1660 FILLER_0_2_27
*1661 FILLER_0_2_273
*1662 FILLER_0_2_285
*1663 FILLER_0_2_29
*1664 FILLER_0_2_297
*1665 FILLER_0_2_3
*1666 FILLER_0_2_305
*1667 FILLER_0_2_309
*1668 FILLER_0_2_321
*1669 FILLER_0_2_333
*1670 FILLER_0_2_41
*1671 FILLER_0_2_53
*1672 FILLER_0_2_65
*1673 FILLER_0_2_77
*1674 FILLER_0_2_83
*1675 FILLER_0_2_85
*1676 FILLER_0_2_97
*1677 FILLER_0_30_101
*1678 FILLER_0_30_11
*1679 FILLER_0_30_115
*1680 FILLER_0_30_131
*1681 FILLER_0_30_139
*1682 FILLER_0_30_152
*1683 FILLER_0_30_164
*1684 FILLER_0_30_169
*1685 FILLER_0_30_186
*1686 FILLER_0_30_190
*1687 FILLER_0_30_197
*1688 FILLER_0_30_20
*1689 FILLER_0_30_212
*1690 FILLER_0_30_220
*1691 FILLER_0_30_235
*1692 FILLER_0_30_250
*1693 FILLER_0_30_271
*1694 FILLER_0_30_29
*1695 FILLER_0_30_295
*1696 FILLER_0_30_3
*1697 FILLER_0_30_303
*1698 FILLER_0_30_318
*1699 FILLER_0_30_330
*1700 FILLER_0_30_334
*1701 FILLER_0_30_46
*1702 FILLER_0_30_54
*1703 FILLER_0_30_68
*1704 FILLER_0_30_72
*1705 FILLER_0_30_83
*1706 FILLER_0_31_102
*1707 FILLER_0_31_110
*1708 FILLER_0_31_113
*1709 FILLER_0_31_126
*1710 FILLER_0_31_138
*1711 FILLER_0_31_147
*1712 FILLER_0_31_16
*1713 FILLER_0_31_164
*1714 FILLER_0_31_174
*1715 FILLER_0_31_189
*1716 FILLER_0_31_201
*1717 FILLER_0_31_208
*1718 FILLER_0_31_214
*1719 FILLER_0_31_220
*1720 FILLER_0_31_225
*1721 FILLER_0_31_237
*1722 FILLER_0_31_249
*1723 FILLER_0_31_253
*1724 FILLER_0_31_257
*1725 FILLER_0_31_269
*1726 FILLER_0_31_277
*1727 FILLER_0_31_3
*1728 FILLER_0_31_30
*1729 FILLER_0_31_307
*1730 FILLER_0_31_334
*1731 FILLER_0_31_34
*1732 FILLER_0_31_57
*1733 FILLER_0_31_64
*1734 FILLER_0_31_72
*1735 FILLER_0_31_78
*1736 FILLER_0_31_90
*1737 FILLER_0_32_105
*1738 FILLER_0_32_11
*1739 FILLER_0_32_117
*1740 FILLER_0_32_135
*1741 FILLER_0_32_139
*1742 FILLER_0_32_144
*1743 FILLER_0_32_152
*1744 FILLER_0_32_159
*1745 FILLER_0_32_168
*1746 FILLER_0_32_182
*1747 FILLER_0_32_188
*1748 FILLER_0_32_204
*1749 FILLER_0_32_222
*1750 FILLER_0_32_232
*1751 FILLER_0_32_24
*1752 FILLER_0_32_253
*1753 FILLER_0_32_276
*1754 FILLER_0_32_29
*1755 FILLER_0_32_290
*1756 FILLER_0_32_3
*1757 FILLER_0_32_307
*1758 FILLER_0_32_309
*1759 FILLER_0_32_321
*1760 FILLER_0_32_333
*1761 FILLER_0_32_41
*1762 FILLER_0_32_51
*1763 FILLER_0_32_57
*1764 FILLER_0_32_66
*1765 FILLER_0_32_83
*1766 FILLER_0_32_94
*1767 FILLER_0_33_109
*1768 FILLER_0_33_113
*1769 FILLER_0_33_123
*1770 FILLER_0_33_132
*1771 FILLER_0_33_138
*1772 FILLER_0_33_153
*1773 FILLER_0_33_159
*1774 FILLER_0_33_167
*1775 FILLER_0_33_169