*SPEF "ieee 1481-1999"
*DESIGN "tt_um_pckys_game"
*DATE "14:25:38 Thursday April 18, 2024"
*VENDOR "The OpenROAD Project"
*PROGRAM "OpenROAD"
*VERSION "0889970d1790a2617e69f253221b8bd7626e51dc"
*DESIGN_FLOW "NAME_SCOPE LOCAL" "PIN_CAP NONE"
*DIVIDER /
*DELIMITER :
*BUS_DELIMITER []
*T_UNIT 1 NS
*C_UNIT 1 PF
*R_UNIT 1 OHM
*L_UNIT 1 HENRY

*NAME_MAP
*3 clk
*4 ena
*5 rst_n
*6 ui_in[0]
*7 ui_in[1]
*8 ui_in[2]
*9 ui_in[3]
*10 ui_in[4]
*11 ui_in[5]
*12 ui_in[6]
*13 ui_in[7]
*14 uio_in[0]
*15 uio_in[1]
*16 uio_in[2]
*17 uio_in[3]
*18 uio_in[4]
*19 uio_in[5]
*20 uio_in[6]
*21 uio_in[7]
*22 net10
*23 net11
*24 net12
*25 net13
*26 net14
*27 net15
*28 net16
*29 net17
*30 net18
*31 net19
*32 net20
*33 net21
*34 net22
*35 net23
*36 net24
*37 net25
*38 uo_out[0]
*39 uo_out[1]
*40 uo_out[2]
*41 uo_out[3]
*42 uo_out[4]
*43 uo_out[5]
*44 uo_out[6]
*45 uo_out[7]
*46 _000_
*47 _001_
*48 _002_
*49 _003_
*50 _004_
*51 _005_
*52 _006_
*53 _007_
*54 _008_
*55 _009_
*56 _010_
*57 _011_
*58 _012_
*59 _013_
*60 _014_
*61 _015_
*62 _016_
*63 _017_
*64 _018_
*65 _019_
*66 _020_
*67 _021_
*68 _022_
*69 _023_
*70 _024_
*71 _025_
*72 _026_
*73 _027_
*74 _028_
*75 _029_
*76 _030_
*77 _031_
*78 _032_
*79 _033_
*80 _034_
*81 _035_
*82 _036_
*83 _037_
*84 _038_
*85 _039_
*86 _040_
*87 _041_
*88 _042_
*89 _043_
*90 _044_
*91 _045_
*92 _046_
*93 _047_
*94 _048_
*95 _049_
*96 _050_
*97 _051_
*98 _052_
*99 _053_
*100 _054_
*101 _055_
*102 _056_
*103 _057_
*104 _058_
*105 _059_
*106 _060_
*107 _061_
*108 _062_
*109 _063_
*110 _064_
*111 _065_
*112 _066_
*113 _067_
*114 _068_
*115 _069_
*116 _070_
*117 _071_
*118 _072_
*119 _073_
*120 _074_
*121 _075_
*122 _076_
*123 _077_
*124 _078_
*125 _079_
*126 _080_
*127 _081_
*128 _082_
*129 _083_
*130 _084_
*131 _085_
*132 _086_
*133 _087_
*134 _088_
*135 _089_
*136 _090_
*137 _091_
*138 _092_
*139 _093_
*140 _094_
*141 _095_
*142 _096_
*143 _097_
*144 _098_
*145 _099_
*146 _100_
*147 _101_
*148 _102_
*149 _103_
*150 _104_
*151 _105_
*152 _106_
*153 _107_
*154 _108_
*155 _109_
*156 _110_
*157 clknet_0_clk
*158 clknet_2_0__leaf_clk
*159 clknet_2_1__leaf_clk
*160 clknet_2_2__leaf_clk
*161 clknet_2_3__leaf_clk
*162 n_init_inst\.counter\[0\]
*163 n_init_inst\.counter\[1\]
*164 n_init_inst\.counter\[2\]
*165 n_init_inst\.counter\[3\]
*166 n_init_inst\.counter\[4\]
*167 n_init_inst\.counter\[5\]
*168 n_init_inst\.counter\[6\]
*169 n_init_inst\.counter\[7\]
*170 net1
*171 net2
*172 net26
*173 net27
*174 net28
*175 net29
*176 net3
*177 net30
*178 net31
*179 net32
*180 net33
*181 net34
*182 net35
*183 net36
*184 net37
*185 net38
*186 net39
*187 net4
*188 net40
*189 net41
*190 net42
*191 net43
*192 net44
*193 net45
*194 net46
*195 net47
*196 net48
*197 net49
*198 net5
*199 net50
*200 net51
*201 net52
*202 net53
*203 net54
*204 net55
*205 net56
*206 net57
*207 net58
*208 net59
*209 net6
*210 net7
*211 net8
*212 net9
*213 number\[0\]
*214 number\[1\]
*215 number\[2\]
*216 number\[3\]
*217 number\[4\]
*218 number\[5\]
*219 number\[6\]
*220 number\[7\]
*221 start
*222 t_inst\.counter2\[0\]
*223 t_inst\.counter2\[1\]
*224 t_inst\.counter2\[2\]
*225 t_inst\.counter\[0\]
*226 t_inst\.counter\[1\]
*227 t_inst\.counter\[2\]
*228 t_inst\.counter\[3\]
*229 t_inst\.counter\[4\]
*230 t_inst\.counter\[5\]
*231 t_inst\.counter\[6\]
*232 t_inst\.counter\[7\]
*233 t_inst\.counter\[8\]
*234 t_inst\.counter\[9\]
*235 t_inst\.flag1
*236 FILLER_0_0_109
*237 FILLER_0_0_113
*238 FILLER_0_0_125
*239 FILLER_0_0_137
*240 FILLER_0_0_141
*241 FILLER_0_0_15
*242 FILLER_0_0_153
*243 FILLER_0_0_165
*244 FILLER_0_0_169
*245 FILLER_0_0_181
*246 FILLER_0_0_193
*247 FILLER_0_0_197
*248 FILLER_0_0_209
*249 FILLER_0_0_221
*250 FILLER_0_0_225
*251 FILLER_0_0_237
*252 FILLER_0_0_249
*253 FILLER_0_0_253
*254 FILLER_0_0_265
*255 FILLER_0_0_27
*256 FILLER_0_0_277
*257 FILLER_0_0_281
*258 FILLER_0_0_29
*259 FILLER_0_0_293
*260 FILLER_0_0_3
*261 FILLER_0_0_305
*262 FILLER_0_0_309
*263 FILLER_0_0_321
*264 FILLER_0_0_333
*265 FILLER_0_0_41
*266 FILLER_0_0_53
*267 FILLER_0_0_57
*268 FILLER_0_0_69
*269 FILLER_0_0_81
*270 FILLER_0_0_85
*271 FILLER_0_0_97
*272 FILLER_0_10_109
*273 FILLER_0_10_121
*274 FILLER_0_10_133
*275 FILLER_0_10_139
*276 FILLER_0_10_141
*277 FILLER_0_10_15
*278 FILLER_0_10_153
*279 FILLER_0_10_165
*280 FILLER_0_10_177
*281 FILLER_0_10_189
*282 FILLER_0_10_195
*283 FILLER_0_10_197
*284 FILLER_0_10_209
*285 FILLER_0_10_221
*286 FILLER_0_10_233
*287 FILLER_0_10_245
*288 FILLER_0_10_251
*289 FILLER_0_10_253
*290 FILLER_0_10_265
*291 FILLER_0_10_27
*292 FILLER_0_10_277
*293 FILLER_0_10_289
*294 FILLER_0_10_29
*295 FILLER_0_10_3
*296 FILLER_0_10_301
*297 FILLER_0_10_307
*298 FILLER_0_10_309
*299 FILLER_0_10_321
*300 FILLER_0_10_333
*301 FILLER_0_10_41
*302 FILLER_0_10_53
*303 FILLER_0_10_65
*304 FILLER_0_10_77
*305 FILLER_0_10_83
*306 FILLER_0_10_85
*307 FILLER_0_10_97
*308 FILLER_0_11_105
*309 FILLER_0_11_111
*310 FILLER_0_11_113
*311 FILLER_0_11_125
*312 FILLER_0_11_137
*313 FILLER_0_11_149
*314 FILLER_0_11_15
*315 FILLER_0_11_161
*316 FILLER_0_11_167
*317 FILLER_0_11_169
*318 FILLER_0_11_181
*319 FILLER_0_11_193
*320 FILLER_0_11_205
*321 FILLER_0_11_217
*322 FILLER_0_11_223
*323 FILLER_0_11_225
*324 FILLER_0_11_237
*325 FILLER_0_11_249
*326 FILLER_0_11_261
*327 FILLER_0_11_27
*328 FILLER_0_11_273
*329 FILLER_0_11_279
*330 FILLER_0_11_281
*331 FILLER_0_11_293
*332 FILLER_0_11_3
*333 FILLER_0_11_305
*334 FILLER_0_11_317
*335 FILLER_0_11_329
*336 FILLER_0_11_39
*337 FILLER_0_11_51
*338 FILLER_0_11_55
*339 FILLER_0_11_57
*340 FILLER_0_11_69
*341 FILLER_0_11_81
*342 FILLER_0_11_93
*343 FILLER_0_12_109
*344 FILLER_0_12_121
*345 FILLER_0_12_133
*346 FILLER_0_12_139
*347 FILLER_0_12_141
*348 FILLER_0_12_15
*349 FILLER_0_12_153
*350 FILLER_0_12_165
*351 FILLER_0_12_177
*352 FILLER_0_12_189
*353 FILLER_0_12_195
*354 FILLER_0_12_197
*355 FILLER_0_12_209
*356 FILLER_0_12_221
*357 FILLER_0_12_233
*358 FILLER_0_12_245
*359 FILLER_0_12_251
*360 FILLER_0_12_253
*361 FILLER_0_12_265
*362 FILLER_0_12_27
*363 FILLER_0_12_277
*364 FILLER_0_12_289
*365 FILLER_0_12_29
*366 FILLER_0_12_3
*367 FILLER_0_12_301
*368 FILLER_0_12_307
*369 FILLER_0_12_309
*370 FILLER_0_12_321
*371 FILLER_0_12_333
*372 FILLER_0_12_41
*373 FILLER_0_12_53
*374 FILLER_0_12_65
*375 FILLER_0_12_77
*376 FILLER_0_12_83
*377 FILLER_0_12_85
*378 FILLER_0_12_97
*379 FILLER_0_13_105
*380 FILLER_0_13_111
*381 FILLER_0_13_113
*382 FILLER_0_13_125
*383 FILLER_0_13_137
*384 FILLER_0_13_149
*385 FILLER_0_13_15
*386 FILLER_0_13_161
*387 FILLER_0_13_167
*388 FILLER_0_13_169
*389 FILLER_0_13_181
*390 FILLER_0_13_193
*391 FILLER_0_13_205
*392 FILLER_0_13_217
*393 FILLER_0_13_223
*394 FILLER_0_13_225
*395 FILLER_0_13_237
*396 FILLER_0_13_249
*397 FILLER_0_13_261
*398 FILLER_0_13_27
*399 FILLER_0_13_273
*400 FILLER_0_13_279
*401 FILLER_0_13_281
*402 FILLER_0_13_293
*403 FILLER_0_13_3
*404 FILLER_0_13_305
*405 FILLER_0_13_317
*406 FILLER_0_13_329
*407 FILLER_0_13_39
*408 FILLER_0_13_51
*409 FILLER_0_13_55
*410 FILLER_0_13_57
*411 FILLER_0_13_69
*412 FILLER_0_13_81
*413 FILLER_0_13_93
*414 FILLER_0_14_109
*415 FILLER_0_14_121
*416 FILLER_0_14_133
*417 FILLER_0_14_139
*418 FILLER_0_14_141
*419 FILLER_0_14_15
*420 FILLER_0_14_153
*421 FILLER_0_14_165
*422 FILLER_0_14_177
*423 FILLER_0_14_189
*424 FILLER_0_14_195
*425 FILLER_0_14_197
*426 FILLER_0_14_209
*427 FILLER_0_14_221
*428 FILLER_0_14_233
*429 FILLER_0_14_245
*430 FILLER_0_14_251
*431 FILLER_0_14_253
*432 FILLER_0_14_265
*433 FILLER_0_14_27
*434 FILLER_0_14_277
*435 FILLER_0_14_289
*436 FILLER_0_14_29
*437 FILLER_0_14_3
*438 FILLER_0_14_301
*439 FILLER_0_14_307
*440 FILLER_0_14_309
*441 FILLER_0_14_321
*442 FILLER_0_14_333
*443 FILLER_0_14_41
*444 FILLER_0_14_53
*445 FILLER_0_14_65
*446 FILLER_0_14_77
*447 FILLER_0_14_83
*448 FILLER_0_14_85
*449 FILLER_0_14_97
*450 FILLER_0_15_105
*451 FILLER_0_15_111
*452 FILLER_0_15_113
*453 FILLER_0_15_125
*454 FILLER_0_15_137
*455 FILLER_0_15_149
*456 FILLER_0_15_15
*457 FILLER_0_15_161
*458 FILLER_0_15_167
*459 FILLER_0_15_169
*460 FILLER_0_15_181
*461 FILLER_0_15_193
*462 FILLER_0_15_205
*463 FILLER_0_15_217
*464 FILLER_0_15_223
*465 FILLER_0_15_225
*466 FILLER_0_15_237
*467 FILLER_0_15_249
*468 FILLER_0_15_261
*469 FILLER_0_15_27
*470 FILLER_0_15_273
*471 FILLER_0_15_279
*472 FILLER_0_15_281
*473 FILLER_0_15_293
*474 FILLER_0_15_3
*475 FILLER_0_15_305
*476 FILLER_0_15_317
*477 FILLER_0_15_329
*478 FILLER_0_15_39
*479 FILLER_0_15_51
*480 FILLER_0_15_55
*481 FILLER_0_15_57
*482 FILLER_0_15_69
*483 FILLER_0_15_81
*484 FILLER_0_15_93
*485 FILLER_0_16_109
*486 FILLER_0_16_121
*487 FILLER_0_16_133
*488 FILLER_0_16_139
*489 FILLER_0_16_141
*490 FILLER_0_16_15
*491 FILLER_0_16_153
*492 FILLER_0_16_165
*493 FILLER_0_16_177
*494 FILLER_0_16_189
*495 FILLER_0_16_195
*496 FILLER_0_16_197
*497 FILLER_0_16_209
*498 FILLER_0_16_221
*499 FILLER_0_16_233
*500 FILLER_0_16_245
*501 FILLER_0_16_251
*502 FILLER_0_16_253
*503 FILLER_0_16_265
*504 FILLER_0_16_27
*505 FILLER_0_16_277
*506 FILLER_0_16_289
*507 FILLER_0_16_29
*508 FILLER_0_16_3
*509 FILLER_0_16_301
*510 FILLER_0_16_307
*511 FILLER_0_16_309
*512 FILLER_0_16_321
*513 FILLER_0_16_333
*514 FILLER_0_16_41
*515 FILLER_0_16_53
*516 FILLER_0_16_65
*517 FILLER_0_16_77
*518 FILLER_0_16_83
*519 FILLER_0_16_85
*520 FILLER_0_16_97
*521 FILLER_0_17_105
*522 FILLER_0_17_111
*523 FILLER_0_17_113
*524 FILLER_0_17_125
*525 FILLER_0_17_137
*526 FILLER_0_17_149
*527 FILLER_0_17_15
*528 FILLER_0_17_161
*529 FILLER_0_17_167
*530 FILLER_0_17_169
*531 FILLER_0_17_181
*532 FILLER_0_17_193
*533 FILLER_0_17_205
*534 FILLER_0_17_217
*535 FILLER_0_17_223
*536 FILLER_0_17_225
*537 FILLER_0_17_237
*538 FILLER_0_17_249
*539 FILLER_0_17_261
*540 FILLER_0_17_27
*541 FILLER_0_17_273
*542 FILLER_0_17_279
*543 FILLER_0_17_281
*544 FILLER_0_17_293
*545 FILLER_0_17_3
*546 FILLER_0_17_305
*547 FILLER_0_17_317
*548 FILLER_0_17_329
*549 FILLER_0_17_39
*550 FILLER_0_17_51
*551 FILLER_0_17_55
*552 FILLER_0_17_57
*553 FILLER_0_17_69
*554 FILLER_0_17_81
*555 FILLER_0_17_93
*556 FILLER_0_18_109
*557 FILLER_0_18_121
*558 FILLER_0_18_133
*559 FILLER_0_18_139
*560 FILLER_0_18_141
*561 FILLER_0_18_15
*562 FILLER_0_18_153
*563 FILLER_0_18_165
*564 FILLER_0_18_177
*565 FILLER_0_18_189
*566 FILLER_0_18_195
*567 FILLER_0_18_197
*568 FILLER_0_18_209
*569 FILLER_0_18_221
*570 FILLER_0_18_233
*571 FILLER_0_18_245
*572 FILLER_0_18_251
*573 FILLER_0_18_253
*574 FILLER_0_18_265
*575 FILLER_0_18_27
*576 FILLER_0_18_277
*577 FILLER_0_18_289
*578 FILLER_0_18_29
*579 FILLER_0_18_3
*580 FILLER_0_18_301
*581 FILLER_0_18_307
*582 FILLER_0_18_309
*583 FILLER_0_18_321
*584 FILLER_0_18_333
*585 FILLER_0_18_41
*586 FILLER_0_18_53
*587 FILLER_0_18_65
*588 FILLER_0_18_77
*589 FILLER_0_18_83
*590 FILLER_0_18_85
*591 FILLER_0_18_97
*592 FILLER_0_19_105
*593 FILLER_0_19_111
*594 FILLER_0_19_113
*595 FILLER_0_19_125
*596 FILLER_0_19_137
*597 FILLER_0_19_149
*598 FILLER_0_19_15
*599 FILLER_0_19_161
*600 FILLER_0_19_167
*601 FILLER_0_19_169
*602 FILLER_0_19_181
*603 FILLER_0_19_193
*604 FILLER_0_19_205
*605 FILLER_0_19_217
*606 FILLER_0_19_223
*607 FILLER_0_19_225
*608 FILLER_0_19_237
*609 FILLER_0_19_249
*610 FILLER_0_19_261
*611 FILLER_0_19_27
*612 FILLER_0_19_273
*613 FILLER_0_19_279
*614 FILLER_0_19_281
*615 FILLER_0_19_293
*616 FILLER_0_19_3
*617 FILLER_0_19_305
*618 FILLER_0_19_317
*619 FILLER_0_19_329
*620 FILLER_0_19_39
*621 FILLER_0_19_51
*622 FILLER_0_19_55
*623 FILLER_0_19_57
*624 FILLER_0_19_69
*625 FILLER_0_19_81
*626 FILLER_0_19_93
*627 FILLER_0_1_105
*628 FILLER_0_1_111
*629 FILLER_0_1_113
*630 FILLER_0_1_125
*631 FILLER_0_1_137
*632 FILLER_0_1_149
*633 FILLER_0_1_15
*634 FILLER_0_1_161
*635 FILLER_0_1_167
*636 FILLER_0_1_169
*637 FILLER_0_1_181
*638 FILLER_0_1_193
*639 FILLER_0_1_205
*640 FILLER_0_1_217
*641 FILLER_0_1_223
*642 FILLER_0_1_225
*643 FILLER_0_1_237
*644 FILLER_0_1_249
*645 FILLER_0_1_261
*646 FILLER_0_1_27
*647 FILLER_0_1_273
*648 FILLER_0_1_279
*649 FILLER_0_1_281
*650 FILLER_0_1_293
*651 FILLER_0_1_3
*652 FILLER_0_1_305
*653 FILLER_0_1_317
*654 FILLER_0_1_329
*655 FILLER_0_1_39
*656 FILLER_0_1_51
*657 FILLER_0_1_55
*658 FILLER_0_1_57
*659 FILLER_0_1_69
*660 FILLER_0_1_81
*661 FILLER_0_1_93
*662 FILLER_0_20_109
*663 FILLER_0_20_121
*664 FILLER_0_20_133
*665 FILLER_0_20_139
*666 FILLER_0_20_141
*667 FILLER_0_20_15
*668 FILLER_0_20_153
*669 FILLER_0_20_165
*670 FILLER_0_20_177
*671 FILLER_0_20_189
*672 FILLER_0_20_195
*673 FILLER_0_20_197
*674 FILLER_0_20_209
*675 FILLER_0_20_221
*676 FILLER_0_20_233
*677 FILLER_0_20_245
*678 FILLER_0_20_251
*679 FILLER_0_20_253
*680 FILLER_0_20_265
*681 FILLER_0_20_27
*682 FILLER_0_20_277
*683 FILLER_0_20_289
*684 FILLER_0_20_29
*685 FILLER_0_20_3
*686 FILLER_0_20_301
*687 FILLER_0_20_307
*688 FILLER_0_20_309
*689 FILLER_0_20_321
*690 FILLER_0_20_333
*691 FILLER_0_20_41
*692 FILLER_0_20_53
*693 FILLER_0_20_65
*694 FILLER_0_20_77
*695 FILLER_0_20_83
*696 FILLER_0_20_85
*697 FILLER_0_20_97
*698 FILLER_0_21_105
*699 FILLER_0_21_111
*700 FILLER_0_21_113
*701 FILLER_0_21_125
*702 FILLER_0_21_137
*703 FILLER_0_21_149
*704 FILLER_0_21_15
*705 FILLER_0_21_161
*706 FILLER_0_21_167
*707 FILLER_0_21_169
*708 FILLER_0_21_181
*709 FILLER_0_21_193
*710 FILLER_0_21_205
*711 FILLER_0_21_217
*712 FILLER_0_21_223
*713 FILLER_0_21_225
*714 FILLER_0_21_237
*715 FILLER_0_21_249
*716 FILLER_0_21_261
*717 FILLER_0_21_27
*718 FILLER_0_21_273
*719 FILLER_0_21_279
*720 FILLER_0_21_281
*721 FILLER_0_21_293
*722 FILLER_0_21_3
*723 FILLER_0_21_305
*724 FILLER_0_21_317
*725 FILLER_0_21_329
*726 FILLER_0_21_39
*727 FILLER_0_21_51
*728 FILLER_0_21_55
*729 FILLER_0_21_57
*730 FILLER_0_21_69
*731 FILLER_0_21_81
*732 FILLER_0_21_93
*733 FILLER_0_22_109
*734 FILLER_0_22_121
*735 FILLER_0_22_133
*736 FILLER_0_22_139
*737 FILLER_0_22_141
*738 FILLER_0_22_15
*739 FILLER_0_22_153
*740 FILLER_0_22_165
*741 FILLER_0_22_177
*742 FILLER_0_22_189
*743 FILLER_0_22_195
*744 FILLER_0_22_197
*745 FILLER_0_22_209
*746 FILLER_0_22_221
*747 FILLER_0_22_233
*748 FILLER_0_22_245
*749 FILLER_0_22_251
*750 FILLER_0_22_253
*751 FILLER_0_22_265
*752 FILLER_0_22_27
*753 FILLER_0_22_277
*754 FILLER_0_22_289
*755 FILLER_0_22_29
*756 FILLER_0_22_3
*757 FILLER_0_22_301
*758 FILLER_0_22_307
*759 FILLER_0_22_309
*760 FILLER_0_22_321
*761 FILLER_0_22_333
*762 FILLER_0_22_41
*763 FILLER_0_22_53
*764 FILLER_0_22_65
*765 FILLER_0_22_77
*766 FILLER_0_22_83
*767 FILLER_0_22_85
*768 FILLER_0_22_97
*769 FILLER_0_23_105
*770 FILLER_0_23_111
*771 FILLER_0_23_113
*772 FILLER_0_23_125
*773 FILLER_0_23_137
*774 FILLER_0_23_149
*775 FILLER_0_23_15
*776 FILLER_0_23_161
*777 FILLER_0_23_167
*778 FILLER_0_23_169
*779 FILLER_0_23_181
*780 FILLER_0_23_193
*781 FILLER_0_23_205
*782 FILLER_0_23_217
*783 FILLER_0_23_223
*784 FILLER_0_23_225
*785 FILLER_0_23_237
*786 FILLER_0_23_249
*787 FILLER_0_23_261
*788 FILLER_0_23_27
*789 FILLER_0_23_273
*790 FILLER_0_23_279
*791 FILLER_0_23_281
*792 FILLER_0_23_293
*793 FILLER_0_23_3
*794 FILLER_0_23_305
*795 FILLER_0_23_317
*796 FILLER_0_23_329
*797 FILLER_0_23_39
*798 FILLER_0_23_51
*799 FILLER_0_23_55
*800 FILLER_0_23_57
*801 FILLER_0_23_69
*802 FILLER_0_23_81
*803 FILLER_0_23_93
*804 FILLER_0_24_109
*805 FILLER_0_24_121
*806 FILLER_0_24_133
*807 FILLER_0_24_139
*808 FILLER_0_24_141
*809 FILLER_0_24_15
*810 FILLER_0_24_153
*811 FILLER_0_24_165
*812 FILLER_0_24_177
*813 FILLER_0_24_189
*814 FILLER_0_24_195
*815 FILLER_0_24_197
*816 FILLER_0_24_209
*817 FILLER_0_24_221
*818 FILLER_0_24_233
*819 FILLER_0_24_245
*820 FILLER_0_24_251
*821 FILLER_0_24_253
*822 FILLER_0_24_265
*823 FILLER_0_24_27
*824 FILLER_0_24_277
*825 FILLER_0_24_289
*826 FILLER_0_24_29
*827 FILLER_0_24_3
*828 FILLER_0_24_301
*829 FILLER_0_24_307
*830 FILLER_0_24_309
*831 FILLER_0_24_321
*832 FILLER_0_24_333
*833 FILLER_0_24_41
*834 FILLER_0_24_53
*835 FILLER_0_24_65
*836 FILLER_0_24_77
*837 FILLER_0_24_83
*838 FILLER_0_24_85
*839 FILLER_0_24_97
*840 FILLER_0_25_105
*841 FILLER_0_25_111
*842 FILLER_0_25_113
*843 FILLER_0_25_125
*844 FILLER_0_25_137
*845 FILLER_0_25_149
*846 FILLER_0_25_15
*847 FILLER_0_25_161
*848 FILLER_0_25_167
*849 FILLER_0_25_169
*850 FILLER_0_25_181
*851 FILLER_0_25_193
*852 FILLER_0_25_205
*853 FILLER_0_25_217
*854 FILLER_0_25_223
*855 FILLER_0_25_225
*856 FILLER_0_25_237
*857 FILLER_0_25_249
*858 FILLER_0_25_261
*859 FILLER_0_25_27
*860 FILLER_0_25_273
*861 FILLER_0_25_279
*862 FILLER_0_25_281
*863 FILLER_0_25_293
*864 FILLER_0_25_3
*865 FILLER_0_25_305
*866 FILLER_0_25_317
*867 FILLER_0_25_329
*868 FILLER_0_25_39
*869 FILLER_0_25_51
*870 FILLER_0_25_55
*871 FILLER_0_25_57
*872 FILLER_0_25_69
*873 FILLER_0_25_81
*874 FILLER_0_25_93
*875 FILLER_0_26_109
*876 FILLER_0_26_121
*877 FILLER_0_26_133
*878 FILLER_0_26_139
*879 FILLER_0_26_141
*880 FILLER_0_26_15
*881 FILLER_0_26_153
*882 FILLER_0_26_165
*883 FILLER_0_26_177
*884 FILLER_0_26_189
*885 FILLER_0_26_195
*886 FILLER_0_26_197
*887 FILLER_0_26_209
*888 FILLER_0_26_221
*889 FILLER_0_26_233
*890 FILLER_0_26_245
*891 FILLER_0_26_251
*892 FILLER_0_26_253
*893 FILLER_0_26_265
*894 FILLER_0_26_27
*895 FILLER_0_26_277
*896 FILLER_0_26_289
*897 FILLER_0_26_29
*898 FILLER_0_26_3
*899 FILLER_0_26_301
*900 FILLER_0_26_307
*901 FILLER_0_26_309
*902 FILLER_0_26_321
*903 FILLER_0_26_333
*904 FILLER_0_26_41
*905 FILLER_0_26_53
*906 FILLER_0_26_65
*907 FILLER_0_26_77
*908 FILLER_0_26_83
*909 FILLER_0_26_85
*910 FILLER_0_26_97
*911 FILLER_0_27_105
*912 FILLER_0_27_111
*913 FILLER_0_27_113
*914 FILLER_0_27_125
*915 FILLER_0_27_137
*916 FILLER_0_27_149
*917 FILLER_0_27_15
*918 FILLER_0_27_161
*919 FILLER_0_27_167
*920 FILLER_0_27_169
*921 FILLER_0_27_181
*922 FILLER_0_27_193
*923 FILLER_0_27_205
*924 FILLER_0_27_217
*925 FILLER_0_27_223
*926 FILLER_0_27_225
*927 FILLER_0_27_237
*928 FILLER_0_27_249
*929 FILLER_0_27_261
*930 FILLER_0_27_27
*931 FILLER_0_27_273
*932 FILLER_0_27_279
*933 FILLER_0_27_281
*934 FILLER_0_27_293
*935 FILLER_0_27_3
*936 FILLER_0_27_305
*937 FILLER_0_27_317
*938 FILLER_0_27_329
*939 FILLER_0_27_39
*940 FILLER_0_27_51
*941 FILLER_0_27_55
*942 FILLER_0_27_57
*943 FILLER_0_27_69
*944 FILLER_0_27_81
*945 FILLER_0_27_93
*946 FILLER_0_28_109
*947 FILLER_0_28_121
*948 FILLER_0_28_133
*949 FILLER_0_28_139
*950 FILLER_0_28_141
*951 FILLER_0_28_15
*952 FILLER_0_28_153
*953 FILLER_0_28_165
*954 FILLER_0_28_173
*955 FILLER_0_28_182
*956 FILLER_0_28_194
*957 FILLER_0_28_197
*958 FILLER_0_28_205
*959 FILLER_0_28_209
*960 FILLER_0_28_220
*961 FILLER_0_28_232
*962 FILLER_0_28_244
*963 FILLER_0_28_253
*964 FILLER_0_28_265
*965 FILLER_0_28_27
*966 FILLER_0_28_277
*967 FILLER_0_28_289
*968 FILLER_0_28_29
*969 FILLER_0_28_3
*970 FILLER_0_28_301
*971 FILLER_0_28_307
*972 FILLER_0_28_309
*973 FILLER_0_28_321
*974 FILLER_0_28_333
*975 FILLER_0_28_41
*976 FILLER_0_28_53
*977 FILLER_0_28_65
*978 FILLER_0_28_77
*979 FILLER_0_28_83
*980 FILLER_0_28_85
*981 FILLER_0_28_97
*982 FILLER_0_29_105
*983 FILLER_0_29_111
*984 FILLER_0_29_113
*985 FILLER_0_29_131
*986 FILLER_0_29_143
*987 FILLER_0_29_148
*988 FILLER_0_29_15
*989 FILLER_0_29_155
*990 FILLER_0_29_163
*991 FILLER_0_29_185
*992 FILLER_0_29_197
*993 FILLER_0_29_201
*994 FILLER_0_29_223
*995 FILLER_0_29_237
*996 FILLER_0_29_249
*997 FILLER_0_29_261
*998 FILLER_0_29_27
*999 FILLER_0_29_273
*1000 FILLER_0_29_279
*1001 FILLER_0_29_281
*1002 FILLER_0_29_289
*1003 FILLER_0_29_299
*1004 FILLER_0_29_3
*1005 FILLER_0_29_311
*1006 FILLER_0_29_323
*1007 FILLER_0_29_39
*1008 FILLER_0_29_51
*1009 FILLER_0_29_55
*1010 FILLER_0_29_57
*1011 FILLER_0_29_69
*1012 FILLER_0_29_81
*1013 FILLER_0_29_93
*1014 FILLER_0_2_109
*1015 FILLER_0_2_121
*1016 FILLER_0_2_133
*1017 FILLER_0_2_139
*1018 FILLER_0_2_141
*1019 FILLER_0_2_15
*1020 FILLER_0_2_153
*1021 FILLER_0_2_165
*1022 FILLER_0_2_177
*1023 FILLER_0_2_189
*1024 FILLER_0_2_195
*1025 FILLER_0_2_197
*1026 FILLER_0_2_209
*1027 FILLER_0_2_221
*1028 FILLER_0_2_233
*1029 FILLER_0_2_245
*1030 FILLER_0_2_251
*1031 FILLER_0_2_253
*1032 FILLER_0_2_265
*1033 FILLER_0_2_27
*1034 FILLER_0_2_277
*1035 FILLER_0_2_289
*1036 FILLER_0_2_29
*1037 FILLER_0_2_3
*1038 FILLER_0_2_301
*1039 FILLER_0_2_307
*1040 FILLER_0_2_309
*1041 FILLER_0_2_321
*1042 FILLER_0_2_333
*1043 FILLER_0_2_41
*1044 FILLER_0_2_53
*1045 FILLER_0_2_65
*1046 FILLER_0_2_77
*1047 FILLER_0_2_83
*1048 FILLER_0_2_85
*1049 FILLER_0_2_97
*1050 FILLER_0_30_109
*1051 FILLER_0_30_115
*1052 FILLER_0_30_137
*1053 FILLER_0_30_15
*1054 FILLER_0_30_194
*1055 FILLER_0_30_197
*1056 FILLER_0_30_233
*1057 FILLER_0_30_242
*1058 FILLER_0_30_250
*1059 FILLER_0_30_253
*1060 FILLER_0_30_27
*1061 FILLER_0_30_272
*1062 FILLER_0_30_29
*1063 FILLER_0_30_292
*1064 FILLER_0_30_3
*1065 FILLER_0_30_306
*1066 FILLER_0_30_309
*1067 FILLER_0_30_321
*1068 FILLER_0_30_333
*1069 FILLER_0_30_41
*1070 FILLER_0_30_53
*1071 FILLER_0_30_65
*1072 FILLER_0_30_77
*1073 FILLER_0_30_83
*1074 FILLER_0_30_85
*1075 FILLER_0_30_97
*1076 FILLER_0_31_105
*1077 FILLER_0_31_111
*1078 FILLER_0_31_113
*1079 FILLER_0_31_142
*1080 FILLER_0_31_148
*1081 FILLER_0_31_15
*1082 FILLER_0_31_169
*1083 FILLER_0_31_190
*1084 FILLER_0_31_205
*1085 FILLER_0_31_222
*1086 FILLER_0_31_256
*1087 FILLER_0_31_27
*1088 FILLER_0_31_279
*1089 FILLER_0_31_3
*1090 FILLER_0_31_319
*1091 FILLER_0_31_331
*1092 FILLER_0_31_39
*1093 FILLER_0_31_51
*1094 FILLER_0_31_55
*1095 FILLER_0_31_57
*1096 FILLER_0_31_69
*1097 FILLER_0_31_81
*1098 FILLER_0_31_93
*1099 FILLER_0_32_105
*1100 FILLER_0_32_139
*1101 FILLER_0_32_144
*1102 FILLER_0_32_15
*1103 FILLER_0_32_156
*1104 FILLER_0_32_162
*1105 FILLER_0_32_186
*1106 FILLER_0_32_194
*1107 FILLER_0_32_197
*1108 FILLER_0_32_209
*1109 FILLER_0_32_261
*1110 FILLER_0_32_27
*1111 FILLER_0_32_29
*1112 FILLER_0_32_291
*1113 FILLER_0_32_3
*1114 FILLER_0_32_320
*1115 FILLER_0_32_332
*1116 FILLER_0_32_41
*1117 FILLER_0_32_53
*1118 FILLER_0_32_65
*1119 FILLER_0_32_77
*1120 FILLER_0_32_83
*1121 FILLER_0_32_85
*1122 FILLER_0_32_97
*1123 FILLER_0_33_105
*1124 FILLER_0_33_111
*1125 FILLER_0_33_113
*1126 FILLER_0_33_135
*1127 FILLER_0_33_15
*1128 FILLER_0_33_152
*1129 FILLER_0_33_164
*1130 FILLER_0_33_169
*1131 FILLER_0_33_180
*1132 FILLER_0_33_192
*1133 FILLER_0_33_212
*1134 FILLER_0_33_261
*1135 FILLER_0_33_27
*1136 FILLER_0_33_279
*1137 FILLER_0_33_281
*1138 FILLER_0_33_3
*1139 FILLER_0_33_318
*1140 FILLER_0_33_327
*1141 FILLER_0_33_39
*1142 FILLER_0_33_51
*1143 FILLER_0_33_55
*1144 FILLER_0_33_57
*1145 FILLER_0_33_69
*1146 FILLER_0_33_81
*1147 FILLER_0_33_93
*1148 FILLER_0_34_109
*1149 FILLER_0_34_121
*1150 FILLER_0_34_129
*1151 FILLER_0_34_148
*1152 FILLER_0_34_15
*1153 FILLER_0_34_169
*1154 FILLER_0_34_189
*1155 FILLER_0_34_195
*1156 FILLER_0_34_213
*1157 FILLER_0_34_27
*1158 FILLER_0_34_286
*1159 FILLER_0_34_29
*1160 FILLER_0_34_3
*1161 FILLER_0_34_306
*1162 FILLER_0_34_329
*1163 FILLER_0_34_41
*1164 FILLER_0_34_53
*1165 FILLER_0_34_65
*1166 FILLER_0_34_77
*1167 FILLER_0_34_83
*1168 FILLER_0_34_85
*1169 FILLER_0_34_97
*1170 FILLER_0_35_105
*1171 FILLER_0_35_111
*1172 FILLER_0_35_113
*1173 FILLER_0_35_125
*1174 FILLER_0_35_15
*1175 FILLER_0_35_150
*1176 FILLER_0_35_192
*1177 FILLER_0_35_223
*1178 FILLER_0_35_243
*1179 FILLER_0_35_267
*1180 FILLER_0_35_27
*1181 FILLER_0_35_278
*1182 FILLER_0_35_287
*1183 FILLER_0_35_299
*1184 FILLER_0_35_3
*1185 FILLER_0_35_325
*1186 FILLER_0_35_333
*1187 FILLER_0_35_39
*1188 FILLER_0_35_51
*1189 FILLER_0_35_55
*1190 FILLER_0_35_57
*1191 FILLER_0_35_69
*1192 FILLER_0_35_81
*1193 FILLER_0_35_93
*1194 FILLER_0_36_109
*1195 FILLER_0_36_135
*1196 FILLER_0_36_139
*1197 FILLER_0_36_15
*1198 FILLER_0_36_150
*1199 FILLER_0_36_190
*1200 FILLER_0_36_197
*1201 FILLER_0_36_210
*1202 FILLER_0_36_220
*1203 FILLER_0_36_256
*1204 FILLER_0_36_27
*1205 FILLER_0_36_284
*1206 FILLER_0_36_29
*1207 FILLER_0_36_296
*1208 FILLER_0_36_3
*1209 FILLER_0_36_309
*1210 FILLER_0_36_323
*1211 FILLER_0_36_41
*1212 FILLER_0_36_53
*1213 FILLER_0_36_65
*1214 FILLER_0_36_77
*1215 FILLER_0_36_83
*1216 FILLER_0_36_85
*1217 FILLER_0_36_97
*1218 FILLER_0_37_105
*1219 FILLER_0_37_111
*1220 FILLER_0_37_113
*1221 FILLER_0_37_143
*1222 FILLER_0_37_15
*1223 FILLER_0_37_167
*1224 FILLER_0_37_200
*1225 FILLER_0_37_217
*1226 FILLER_0_37_249
*1227 FILLER_0_37_27
*1228 FILLER_0_37_279
*1229 FILLER_0_37_3
*1230 FILLER_0_37_305
*1231 FILLER_0_37_333
*1232 FILLER_0_37_39
*1233 FILLER_0_37_51
*1234 FILLER_0_37_55
*1235 FILLER_0_37_57
*1236 FILLER_0_37_69
*1237 FILLER_0_37_81
*1238 FILLER_0_37_93
*1239 FILLER_0_38_10
*1240 FILLER_0_38_102
*1241 FILLER_0_38_106
*1242 FILLER_0_38_110
*1243 FILLER_0_38_113
*1244 FILLER_0_38_118
*1245 FILLER_0_38_122
*1246 FILLER_0_38_126
*1247 FILLER_0_38_138
*1248 FILLER_0_38_14
*1249 FILLER_0_38_141
*1250 FILLER_0_38_153
*1251 FILLER_0_38_159
*1252 FILLER_0_38_163
*1253 FILLER_0_38_18
*1254 FILLER_0_38_188
*1255 FILLER_0_38_197
*1256 FILLER_0_38_209
*1257 FILLER_0_38_22
*1258 FILLER_0_38_221
*1259 FILLER_0_38_225
*1260 FILLER_0_38_237
*1261 FILLER_0_38_244
*1262 FILLER_0_38_268
*1263 FILLER_0_38_279
*1264 FILLER_0_38_287
*1265 FILLER_0_38_32
*1266 FILLER_0_38_321
*1267 FILLER_0_38_330
*1268 FILLER_0_38_334
*1269 FILLER_0_38_38
*1270 FILLER_0_38_42
*1271 FILLER_0_38_46
*1272 FILLER_0_38_50
*1273 FILLER_0_38_54
*1274 FILLER_0_38_57
*1275 FILLER_0_38_6
*1276 FILLER_0_38_62
*1277 FILLER_0_38_66
*1278 FILLER_0_38_70
*1279 FILLER_0_38_74
*1280 FILLER_0_38_78
*1281 FILLER_0_38_88
*1282 FILLER_0_38_94
*1283 FILLER_0_38_98
*1284 FILLER_0_3_105
*1285 FILLER_0_3_111
*1286 FILLER_0_3_113
*1287 FILLER_0_3_125
*1288 FILLER_0_3_137
*1289 FILLER_0_3_149
*1290 FILLER_0_3_15
*1291 FILLER_0_3_161
*1292 FILLER_0_3_167
*1293 FILLER_0_3_169
*1294 FILLER_0_3_181
*1295 FILLER_0_3_193
*1296 FILLER_0_3_205
*1297 FILLER_0_3_217
*1298 FILLER_0_3_223
*1299 FILLER_0_3_225
*1300 FILLER_0_3_237
*1301 FILLER_0_3_249
*1302 FILLER_0_3_261
*1303 FILLER_0_3_27
*1304 FILLER_0_3_273
*1305 FILLER_0_3_279
*1306 FILLER_0_3_281
*1307 FILLER_0_3_293
*1308 FILLER_0_3_3
*1309 FILLER_0_3_305
*1310 FILLER_0_3_317
*1311 FILLER_0_3_329
*1312 FILLER_0_3_39
*1313 FILLER_0_3_51
*1314 FILLER_0_3_55
*1315 FILLER_0_3_57
*1316 FILLER_0_3_69
*1317 FILLER_0_3_81
*1318 FILLER_0_3_93
*1319 FILLER_0_4_109
*1320 FILLER_0_4_121
*1321 FILLER_0_4_133
*1322 FILLER_0_4_139
*1323 FILLER_0_4_141
*1324 FILLER_0_4_15
*1325 FILLER_0_4_153
*1326 FILLER_0_4_165
*1327 FILLER_0_4_177
*1328 FILLER_0_4_189
*1329 FILLER_0_4_195
*1330 FILLER_0_4_197
*1331 FILLER_0_4_209
*1332 FILLER_0_4_221
*1333 FILLER_0_4_233
*1334 FILLER_0_4_245
*1335 FILLER_0_4_251
*1336 FILLER_0_4_253
*1337 FILLER_0_4_265
*1338 FILLER_0_4_27
*1339 FILLER_0_4_277
*1340 FILLER_0_4_289
*1341 FILLER_0_4_29
*1342 FILLER_0_4_3
*1343 FILLER_0_4_301
*1344 FILLER_0_4_307
*1345 FILLER_0_4_309
*1346 FILLER_0_4_321
*1347 FILLER_0_4_333
*1348 FILLER_0_4_41
*1349 FILLER_0_4_53
*1350 FILLER_0_4_65
*1351 FILLER_0_4_77
*1352 FILLER_0_4_83
*1353 FILLER_0_4_85
*1354 FILLER_0_4_97
*1355 FILLER_0_5_105
*1356 FILLER_0_5_111
*1357 FILLER_0_5_113
*1358 FILLER_0_5_125
*1359 FILLER_0_5_137
*1360 FILLER_0_5_149
*1361 FILLER_0_5_15
*1362 FILLER_0_5_161
*1363 FILLER_0_5_167
*1364 FILLER_0_5_169
*1365 FILLER_0_5_181
*1366 FILLER_0_5_193
*1367 FILLER_0_5_205
*1368 FILLER_0_5_217
*1369 FILLER_0_5_223
*1370 FILLER_0_5_225
*1371 FILLER_0_5_237
*1372 FILLER_0_5_249
*1373 FILLER_0_5_261
*1374 FILLER_0_5_27
*1375 FILLER_0_5_273
*1376 FILLER_0_5_279
*1377 FILLER_0_5_281
*1378 FILLER_0_5_293
*1379 FILLER_0_5_3
*1380 FILLER_0_5_305
*1381 FILLER_0_5_317
*1382 FILLER_0_5_329
*1383 FILLER_0_5_39
*1384 FILLER_0_5_51
*1385 FILLER_0_5_55
*1386 FILLER_0_5_57
*1387 FILLER_0_5_69
*1388 FILLER_0_5_81
*1389 FILLER_0_5_93
*1390 FILLER_0_6_109
*1391 FILLER_0_6_121
*1392 FILLER_0_6_133
*1393 FILLER_0_6_139
*1394 FILLER_0_6_141
*1395 FILLER_0_6_15
*1396 FILLER_0_6_153
*1397 FILLER_0_6_165
*1398 FILLER_0_6_177
*1399 FILLER_0_6_189
*1400 FILLER_0_6_195
*1401 FILLER_0_6_197
*1402 FILLER_0_6_209
*1403 FILLER_0_6_221
*1404 FILLER_0_6_233
*1405 FILLER_0_6_245
*1406 FILLER_0_6_251
*1407 FILLER_0_6_253
*1408 FILLER_0_6_265
*1409 FILLER_0_6_27
*1410 FILLER_0_6_277
*1411 FILLER_0_6_289
*1412 FILLER_0_6_29
*1413 FILLER_0_6_3
*1414 FILLER_0_6_301
*1415 FILLER_0_6_307
*1416 FILLER_0_6_309
*1417 FILLER_0_6_321
*1418 FILLER_0_6_333
*1419 FILLER_0_6_41
*1420 FILLER_0_6_53
*1421 FILLER_0_6_65
*1422 FILLER_0_6_77
*1423 FILLER_0_6_83
*1424 FILLER_0_6_85
*1425 FILLER_0_6_97
*1426 FILLER_0_7_105
*1427 FILLER_0_7_111
*1428 FILLER_0_7_113
*1429 FILLER_0_7_125
*1430 FILLER_0_7_137
*1431 FILLER_0_7_149
*1432 FILLER_0_7_15
*1433 FILLER_0_7_161
*1434 FILLER_0_7_167
*1435 FILLER_0_7_169
*1436 FILLER_0_7_181
*1437 FILLER_0_7_193
*1438 FILLER_0_7_205
*1439 FILLER_0_7_217
*1440 FILLER_0_7_223
*1441 FILLER_0_7_225
*1442 FILLER_0_7_237
*1443 FILLER_0_7_249
*1444 FILLER_0_7_261
*1445 FILLER_0_7_27
*1446 FILLER_0_7_273
*1447 FILLER_0_7_279
*1448 FILLER_0_7_281
*1449 FILLER_0_7_293
*1450 FILLER_0_7_3
*1451 FILLER_0_7_305
*1452 FILLER_0_7_317
*1453 FILLER_0_7_329
*1454 FILLER_0_7_39
*1455 FILLER_0_7_51
*1456 FILLER_0_7_55
*1457 FILLER_0_7_57
*1458 FILLER_0_7_69
*1459 FILLER_0_7_81
*1460 FILLER_0_7_93
*1461 FILLER_0_8_109
*1462 FILLER_0_8_121
*1463 FILLER_0_8_133
*1464 FILLER_0_8_139
*1465 FILLER_0_8_141
*1466 FILLER_0_8_15
*1467 FILLER_0_8_153
*1468 FILLER_0_8_165
*1469 FILLER_0_8_177
*1470 FILLER_0_8_189
*1471 FILLER_0_8_195
*1472 FILLER_0_8_197
*1473 FILLER_0_8_209
*1474 FILLER_0_8_221
*1475 FILLER_0_8_233
*1476 FILLER_0_8_245
*1477 FILLER_0_8_251
*1478 FILLER_0_8_253
*1479 FILLER_0_8_265
*1480 FILLER_0_8_27
*1481 FILLER_0_8_277
*1482 FILLER_0_8_289
*1483 FILLER_0_8_29
*1484 FILLER_0_8_3
*1485 FILLER_0_8_301
*1486 FILLER_0_8_307
*1487 FILLER_0_8_309
*1488 FILLER_0_8_321
*1489 FILLER_0_8_333
*1490 FILLER_0_8_41
*1491 FILLER_0_8_53
*1492 FILLER_0_8_65
*1493 FILLER_0_8_77
*1494 FILLER_0_8_83
*1495 FILLER_0_8_85
*1496 FILLER_0_8_97
*1497 FILLER_0_9_105
*1498 FILLER_0_9_111
*1499 FILLER_0_9_113
*1500 FILLER_0_9_125
*1501 FILLER_0_9_137
*1502 FILLER_0_9_149
*1503 FILLER_0_9_15
*1504 FILLER_0_9_161
*1505 FILLER_0_9_167
*1506 FILLER_0_9_169
*1507 FILLER_0_9_181
*1508 FILLER_0_9_193
*1509 FILLER_0_9_205
*1510 FILLER_0_9_217
*1511 FILLER_0_9_223
*1512 FILLER_0_9_225
*1513 FILLER_0_9_237
*1514 FILLER_0_9_249
*1515 FILLER_0_9_261
*1516 FILLER_0_9_27