*SPEF "ieee 1481-1999"
*DESIGN "tt_um_adammaj"
*DATE "03:30:13 Friday April 19, 2024"
*VENDOR "The OpenROAD Project"
*PROGRAM "OpenROAD"
*VERSION "0889970d1790a2617e69f253221b8bd7626e51dc"
*DESIGN_FLOW "NAME_SCOPE LOCAL" "PIN_CAP NONE"
*DIVIDER /
*DELIMITER :
*BUS_DELIMITER []
*T_UNIT 1 NS
*C_UNIT 1 PF
*R_UNIT 1 OHM
*L_UNIT 1 HENRY

*NAME_MAP
*3 clk
*4 ena
*5 rst_n
*6 ui_in[0]
*7 ui_in[1]
*8 ui_in[2]
*9 ui_in[3]
*10 ui_in[4]
*11 ui_in[5]
*12 ui_in[6]
*13 ui_in[7]
*14 uio_in[0]
*15 uio_in[1]
*16 uio_in[2]
*17 uio_in[3]
*18 uio_in[4]
*19 uio_in[5]
*20 uio_in[6]
*21 uio_in[7]
*22 net11
*23 net12
*24 net13
*25 net14
*26 net15
*27 net16
*28 net17
*29 net18
*30 net19
*31 net20
*32 net21
*33 net22
*34 net23
*35 net24
*36 net25
*37 net26
*38 uo_out[0]
*39 uo_out[1]
*40 uo_out[2]
*41 uo_out[3]
*42 net27
*43 net28
*44 net29
*45 net30
*46 _000_
*47 _001_
*48 _002_
*49 _003_
*50 _004_
*51 _005_
*52 _006_
*53 _007_
*54 _008_
*55 _009_
*56 _010_
*57 _011_
*58 _012_
*59 _013_
*60 _014_
*61 _015_
*62 _016_
*63 _017_
*64 _018_
*65 _019_
*66 _020_
*67 _021_
*68 _022_
*69 _023_
*70 _024_
*71 _025_
*72 _026_
*73 _027_
*74 _028_
*75 _029_
*76 _030_
*77 _031_
*78 _032_
*79 _033_
*80 _034_
*81 _035_
*82 _036_
*83 _037_
*84 _038_
*85 _039_
*86 _040_
*87 _041_
*88 _042_
*89 _043_
*90 _044_
*91 _045_
*92 _046_
*93 _047_
*94 _048_
*95 _049_
*96 _050_
*97 _051_
*98 _052_
*99 _053_
*100 _054_
*101 _055_
*102 _056_
*103 _057_
*104 _058_
*105 _059_
*106 _060_
*107 _061_
*108 _062_
*109 _063_
*110 _064_
*111 _065_
*112 _066_
*113 _067_
*114 _068_
*115 _069_
*116 _070_
*117 _071_
*118 _072_
*119 _073_
*120 _074_
*121 _075_
*122 _076_
*123 _077_
*124 _078_
*125 _079_
*126 _080_
*127 _081_
*128 _082_
*129 _083_
*130 _084_
*131 _085_
*132 _086_
*133 _087_
*134 _088_
*135 _089_
*136 _090_
*137 _091_
*138 _092_
*139 _093_
*140 _094_
*141 clknet_0_clk
*142 clknet_1_0__leaf_clk
*143 clknet_1_1__leaf_clk
*144 net1
*145 net10
*146 net2
*147 net3
*148 net4
*149 net5
*150 net6
*151 net7
*152 net8
*153 net9
*154 FILLER_0_0_109
*155 FILLER_0_0_113
*156 FILLER_0_0_125
*157 FILLER_0_0_137
*158 FILLER_0_0_141
*159 FILLER_0_0_15
*160 FILLER_0_0_153
*161 FILLER_0_0_165
*162 FILLER_0_0_169
*163 FILLER_0_0_181
*164 FILLER_0_0_193
*165 FILLER_0_0_197
*166 FILLER_0_0_209
*167 FILLER_0_0_221
*168 FILLER_0_0_225
*169 FILLER_0_0_237
*170 FILLER_0_0_249
*171 FILLER_0_0_253
*172 FILLER_0_0_265
*173 FILLER_0_0_27
*174 FILLER_0_0_277
*175 FILLER_0_0_281
*176 FILLER_0_0_29
*177 FILLER_0_0_293
*178 FILLER_0_0_3
*179 FILLER_0_0_305
*180 FILLER_0_0_309
*181 FILLER_0_0_321
*182 FILLER_0_0_333
*183 FILLER_0_0_41
*184 FILLER_0_0_53
*185 FILLER_0_0_57
*186 FILLER_0_0_69
*187 FILLER_0_0_81
*188 FILLER_0_0_85
*189 FILLER_0_0_97
*190 FILLER_0_10_109
*191 FILLER_0_10_121
*192 FILLER_0_10_133
*193 FILLER_0_10_139
*194 FILLER_0_10_141
*195 FILLER_0_10_15
*196 FILLER_0_10_153
*197 FILLER_0_10_165
*198 FILLER_0_10_177
*199 FILLER_0_10_189
*200 FILLER_0_10_195
*201 FILLER_0_10_197
*202 FILLER_0_10_209
*203 FILLER_0_10_221
*204 FILLER_0_10_233
*205 FILLER_0_10_245
*206 FILLER_0_10_251
*207 FILLER_0_10_253
*208 FILLER_0_10_265
*209 FILLER_0_10_27
*210 FILLER_0_10_277
*211 FILLER_0_10_289
*212 FILLER_0_10_29
*213 FILLER_0_10_3
*214 FILLER_0_10_301
*215 FILLER_0_10_307
*216 FILLER_0_10_309
*217 FILLER_0_10_321
*218 FILLER_0_10_333
*219 FILLER_0_10_41
*220 FILLER_0_10_53
*221 FILLER_0_10_65
*222 FILLER_0_10_77
*223 FILLER_0_10_83
*224 FILLER_0_10_85
*225 FILLER_0_10_97
*226 FILLER_0_11_105
*227 FILLER_0_11_111
*228 FILLER_0_11_113
*229 FILLER_0_11_125
*230 FILLER_0_11_137
*231 FILLER_0_11_149
*232 FILLER_0_11_15
*233 FILLER_0_11_161
*234 FILLER_0_11_167
*235 FILLER_0_11_169
*236 FILLER_0_11_181
*237 FILLER_0_11_193
*238 FILLER_0_11_205
*239 FILLER_0_11_217
*240 FILLER_0_11_223
*241 FILLER_0_11_225
*242 FILLER_0_11_237
*243 FILLER_0_11_249
*244 FILLER_0_11_261
*245 FILLER_0_11_27
*246 FILLER_0_11_273
*247 FILLER_0_11_279
*248 FILLER_0_11_281
*249 FILLER_0_11_293
*250 FILLER_0_11_3
*251 FILLER_0_11_305
*252 FILLER_0_11_317
*253 FILLER_0_11_329
*254 FILLER_0_11_39
*255 FILLER_0_11_51
*256 FILLER_0_11_55
*257 FILLER_0_11_57
*258 FILLER_0_11_69
*259 FILLER_0_11_81
*260 FILLER_0_11_93
*261 FILLER_0_12_109
*262 FILLER_0_12_121
*263 FILLER_0_12_133
*264 FILLER_0_12_139
*265 FILLER_0_12_141
*266 FILLER_0_12_15
*267 FILLER_0_12_153
*268 FILLER_0_12_165
*269 FILLER_0_12_177
*270 FILLER_0_12_189
*271 FILLER_0_12_195
*272 FILLER_0_12_197
*273 FILLER_0_12_209
*274 FILLER_0_12_221
*275 FILLER_0_12_233
*276 FILLER_0_12_245
*277 FILLER_0_12_251
*278 FILLER_0_12_253
*279 FILLER_0_12_265
*280 FILLER_0_12_27
*281 FILLER_0_12_277
*282 FILLER_0_12_289
*283 FILLER_0_12_29
*284 FILLER_0_12_3
*285 FILLER_0_12_301
*286 FILLER_0_12_307
*287 FILLER_0_12_309
*288 FILLER_0_12_321
*289 FILLER_0_12_333
*290 FILLER_0_12_41
*291 FILLER_0_12_53
*292 FILLER_0_12_65
*293 FILLER_0_12_77
*294 FILLER_0_12_83
*295 FILLER_0_12_85
*296 FILLER_0_12_97
*297 FILLER_0_13_105
*298 FILLER_0_13_111
*299 FILLER_0_13_113
*300 FILLER_0_13_125
*301 FILLER_0_13_137
*302 FILLER_0_13_149
*303 FILLER_0_13_15
*304 FILLER_0_13_161
*305 FILLER_0_13_167
*306 FILLER_0_13_169
*307 FILLER_0_13_181
*308 FILLER_0_13_193
*309 FILLER_0_13_205
*310 FILLER_0_13_217
*311 FILLER_0_13_223
*312 FILLER_0_13_225
*313 FILLER_0_13_237
*314 FILLER_0_13_249
*315 FILLER_0_13_261
*316 FILLER_0_13_27
*317 FILLER_0_13_273
*318 FILLER_0_13_279
*319 FILLER_0_13_281
*320 FILLER_0_13_293
*321 FILLER_0_13_3
*322 FILLER_0_13_305
*323 FILLER_0_13_317
*324 FILLER_0_13_329
*325 FILLER_0_13_39
*326 FILLER_0_13_51
*327 FILLER_0_13_55
*328 FILLER_0_13_57
*329 FILLER_0_13_69
*330 FILLER_0_13_81
*331 FILLER_0_13_93
*332 FILLER_0_14_109
*333 FILLER_0_14_121
*334 FILLER_0_14_133
*335 FILLER_0_14_139
*336 FILLER_0_14_141
*337 FILLER_0_14_15
*338 FILLER_0_14_153
*339 FILLER_0_14_165
*340 FILLER_0_14_177
*341 FILLER_0_14_189
*342 FILLER_0_14_195
*343 FILLER_0_14_197
*344 FILLER_0_14_209
*345 FILLER_0_14_221
*346 FILLER_0_14_233
*347 FILLER_0_14_245
*348 FILLER_0_14_251
*349 FILLER_0_14_253
*350 FILLER_0_14_265
*351 FILLER_0_14_27
*352 FILLER_0_14_277
*353 FILLER_0_14_289
*354 FILLER_0_14_29
*355 FILLER_0_14_3
*356 FILLER_0_14_301
*357 FILLER_0_14_307
*358 FILLER_0_14_309
*359 FILLER_0_14_321
*360 FILLER_0_14_333
*361 FILLER_0_14_41
*362 FILLER_0_14_53
*363 FILLER_0_14_65
*364 FILLER_0_14_77
*365 FILLER_0_14_83
*366 FILLER_0_14_85
*367 FILLER_0_14_97
*368 FILLER_0_15_105
*369 FILLER_0_15_111
*370 FILLER_0_15_113
*371 FILLER_0_15_125
*372 FILLER_0_15_137
*373 FILLER_0_15_149
*374 FILLER_0_15_15
*375 FILLER_0_15_161
*376 FILLER_0_15_167
*377 FILLER_0_15_169
*378 FILLER_0_15_181
*379 FILLER_0_15_193
*380 FILLER_0_15_205
*381 FILLER_0_15_217
*382 FILLER_0_15_223
*383 FILLER_0_15_225
*384 FILLER_0_15_237
*385 FILLER_0_15_249
*386 FILLER_0_15_261
*387 FILLER_0_15_27
*388 FILLER_0_15_273
*389 FILLER_0_15_279
*390 FILLER_0_15_281
*391 FILLER_0_15_293
*392 FILLER_0_15_3
*393 FILLER_0_15_305
*394 FILLER_0_15_317
*395 FILLER_0_15_329
*396 FILLER_0_15_39
*397 FILLER_0_15_51
*398 FILLER_0_15_55
*399 FILLER_0_15_57
*400 FILLER_0_15_69
*401 FILLER_0_15_81
*402 FILLER_0_15_93
*403 FILLER_0_16_109
*404 FILLER_0_16_121
*405 FILLER_0_16_133
*406 FILLER_0_16_139
*407 FILLER_0_16_141
*408 FILLER_0_16_15
*409 FILLER_0_16_153
*410 FILLER_0_16_165
*411 FILLER_0_16_177
*412 FILLER_0_16_189
*413 FILLER_0_16_195
*414 FILLER_0_16_197
*415 FILLER_0_16_209
*416 FILLER_0_16_221
*417 FILLER_0_16_233
*418 FILLER_0_16_245
*419 FILLER_0_16_251
*420 FILLER_0_16_253
*421 FILLER_0_16_265
*422 FILLER_0_16_27
*423 FILLER_0_16_277
*424 FILLER_0_16_289
*425 FILLER_0_16_29
*426 FILLER_0_16_3
*427 FILLER_0_16_301
*428 FILLER_0_16_307
*429 FILLER_0_16_309
*430 FILLER_0_16_321
*431 FILLER_0_16_333
*432 FILLER_0_16_41
*433 FILLER_0_16_53
*434 FILLER_0_16_65
*435 FILLER_0_16_77
*436 FILLER_0_16_83
*437 FILLER_0_16_85
*438 FILLER_0_16_97
*439 FILLER_0_17_105
*440 FILLER_0_17_111
*441 FILLER_0_17_113
*442 FILLER_0_17_125
*443 FILLER_0_17_137
*444 FILLER_0_17_149
*445 FILLER_0_17_15
*446 FILLER_0_17_161
*447 FILLER_0_17_167
*448 FILLER_0_17_169
*449 FILLER_0_17_181
*450 FILLER_0_17_193
*451 FILLER_0_17_205
*452 FILLER_0_17_217
*453 FILLER_0_17_223
*454 FILLER_0_17_225
*455 FILLER_0_17_237
*456 FILLER_0_17_249
*457 FILLER_0_17_261
*458 FILLER_0_17_27
*459 FILLER_0_17_273
*460 FILLER_0_17_279
*461 FILLER_0_17_281
*462 FILLER_0_17_293
*463 FILLER_0_17_3
*464 FILLER_0_17_305
*465 FILLER_0_17_317
*466 FILLER_0_17_329
*467 FILLER_0_17_39
*468 FILLER_0_17_51
*469 FILLER_0_17_55
*470 FILLER_0_17_57
*471 FILLER_0_17_69
*472 FILLER_0_17_81
*473 FILLER_0_17_93
*474 FILLER_0_18_109
*475 FILLER_0_18_121
*476 FILLER_0_18_133
*477 FILLER_0_18_139
*478 FILLER_0_18_141
*479 FILLER_0_18_15
*480 FILLER_0_18_153
*481 FILLER_0_18_165
*482 FILLER_0_18_177
*483 FILLER_0_18_189
*484 FILLER_0_18_195
*485 FILLER_0_18_197
*486 FILLER_0_18_209
*487 FILLER_0_18_221
*488 FILLER_0_18_233
*489 FILLER_0_18_245
*490 FILLER_0_18_251
*491 FILLER_0_18_253
*492 FILLER_0_18_265
*493 FILLER_0_18_27
*494 FILLER_0_18_277
*495 FILLER_0_18_289
*496 FILLER_0_18_29
*497 FILLER_0_18_3
*498 FILLER_0_18_301
*499 FILLER_0_18_307
*500 FILLER_0_18_309
*501 FILLER_0_18_321
*502 FILLER_0_18_333
*503 FILLER_0_18_41
*504 FILLER_0_18_53
*505 FILLER_0_18_65
*506 FILLER_0_18_77
*507 FILLER_0_18_83
*508 FILLER_0_18_85
*509 FILLER_0_18_97
*510 FILLER_0_19_105
*511 FILLER_0_19_111
*512 FILLER_0_19_113
*513 FILLER_0_19_125
*514 FILLER_0_19_137
*515 FILLER_0_19_149
*516 FILLER_0_19_15
*517 FILLER_0_19_161
*518 FILLER_0_19_167
*519 FILLER_0_19_169
*520 FILLER_0_19_181
*521 FILLER_0_19_193
*522 FILLER_0_19_205
*523 FILLER_0_19_217
*524 FILLER_0_19_223
*525 FILLER_0_19_225
*526 FILLER_0_19_237
*527 FILLER_0_19_249
*528 FILLER_0_19_261
*529 FILLER_0_19_27
*530 FILLER_0_19_273
*531 FILLER_0_19_279
*532 FILLER_0_19_281
*533 FILLER_0_19_293
*534 FILLER_0_19_3
*535 FILLER_0_19_305
*536 FILLER_0_19_317
*537 FILLER_0_19_329
*538 FILLER_0_19_39
*539 FILLER_0_19_51
*540 FILLER_0_19_55
*541 FILLER_0_19_57
*542 FILLER_0_19_69
*543 FILLER_0_19_81
*544 FILLER_0_19_93
*545 FILLER_0_1_105
*546 FILLER_0_1_111
*547 FILLER_0_1_113
*548 FILLER_0_1_125
*549 FILLER_0_1_137
*550 FILLER_0_1_149
*551 FILLER_0_1_15
*552 FILLER_0_1_161
*553 FILLER_0_1_167
*554 FILLER_0_1_169
*555 FILLER_0_1_181
*556 FILLER_0_1_193
*557 FILLER_0_1_205
*558 FILLER_0_1_217
*559 FILLER_0_1_223
*560 FILLER_0_1_225
*561 FILLER_0_1_237
*562 FILLER_0_1_249
*563 FILLER_0_1_261
*564 FILLER_0_1_27
*565 FILLER_0_1_273
*566 FILLER_0_1_279
*567 FILLER_0_1_281
*568 FILLER_0_1_293
*569 FILLER_0_1_3
*570 FILLER_0_1_305
*571 FILLER_0_1_317
*572 FILLER_0_1_329
*573 FILLER_0_1_39
*574 FILLER_0_1_51
*575 FILLER_0_1_55
*576 FILLER_0_1_57
*577 FILLER_0_1_69
*578 FILLER_0_1_81
*579 FILLER_0_1_93
*580 FILLER_0_20_109
*581 FILLER_0_20_121
*582 FILLER_0_20_133
*583 FILLER_0_20_139
*584 FILLER_0_20_141
*585 FILLER_0_20_15
*586 FILLER_0_20_153
*587 FILLER_0_20_165
*588 FILLER_0_20_177
*589 FILLER_0_20_189
*590 FILLER_0_20_195
*591 FILLER_0_20_197
*592 FILLER_0_20_209
*593 FILLER_0_20_221
*594 FILLER_0_20_233
*595 FILLER_0_20_245
*596 FILLER_0_20_251
*597 FILLER_0_20_253
*598 FILLER_0_20_265
*599 FILLER_0_20_27
*600 FILLER_0_20_277
*601 FILLER_0_20_289
*602 FILLER_0_20_29
*603 FILLER_0_20_3
*604 FILLER_0_20_301
*605 FILLER_0_20_307
*606 FILLER_0_20_309
*607 FILLER_0_20_321
*608 FILLER_0_20_333
*609 FILLER_0_20_41
*610 FILLER_0_20_53
*611 FILLER_0_20_65
*612 FILLER_0_20_77
*613 FILLER_0_20_83
*614 FILLER_0_20_85
*615 FILLER_0_20_97
*616 FILLER_0_21_105
*617 FILLER_0_21_111
*618 FILLER_0_21_113
*619 FILLER_0_21_125
*620 FILLER_0_21_137
*621 FILLER_0_21_149
*622 FILLER_0_21_15
*623 FILLER_0_21_161
*624 FILLER_0_21_167
*625 FILLER_0_21_169
*626 FILLER_0_21_181
*627 FILLER_0_21_193
*628 FILLER_0_21_205
*629 FILLER_0_21_217
*630 FILLER_0_21_223
*631 FILLER_0_21_225
*632 FILLER_0_21_237
*633 FILLER_0_21_249
*634 FILLER_0_21_261
*635 FILLER_0_21_27
*636 FILLER_0_21_273
*637 FILLER_0_21_279
*638 FILLER_0_21_281
*639 FILLER_0_21_293
*640 FILLER_0_21_3
*641 FILLER_0_21_305
*642 FILLER_0_21_317
*643 FILLER_0_21_329
*644 FILLER_0_21_39
*645 FILLER_0_21_51
*646 FILLER_0_21_55
*647 FILLER_0_21_57
*648 FILLER_0_21_69
*649 FILLER_0_21_81
*650 FILLER_0_21_93
*651 FILLER_0_22_109
*652 FILLER_0_22_121
*653 FILLER_0_22_133
*654 FILLER_0_22_139
*655 FILLER_0_22_141
*656 FILLER_0_22_15
*657 FILLER_0_22_153
*658 FILLER_0_22_165
*659 FILLER_0_22_177
*660 FILLER_0_22_189
*661 FILLER_0_22_195
*662 FILLER_0_22_197
*663 FILLER_0_22_209
*664 FILLER_0_22_221
*665 FILLER_0_22_233
*666 FILLER_0_22_245
*667 FILLER_0_22_251
*668 FILLER_0_22_253
*669 FILLER_0_22_265
*670 FILLER_0_22_27
*671 FILLER_0_22_277
*672 FILLER_0_22_289
*673 FILLER_0_22_29
*674 FILLER_0_22_3
*675 FILLER_0_22_301
*676 FILLER_0_22_307
*677 FILLER_0_22_309
*678 FILLER_0_22_321
*679 FILLER_0_22_333
*680 FILLER_0_22_41
*681 FILLER_0_22_53
*682 FILLER_0_22_65
*683 FILLER_0_22_77
*684 FILLER_0_22_83
*685 FILLER_0_22_85
*686 FILLER_0_22_97
*687 FILLER_0_23_105
*688 FILLER_0_23_111
*689 FILLER_0_23_113
*690 FILLER_0_23_125
*691 FILLER_0_23_137
*692 FILLER_0_23_149
*693 FILLER_0_23_15
*694 FILLER_0_23_161
*695 FILLER_0_23_167
*696 FILLER_0_23_169
*697 FILLER_0_23_181
*698 FILLER_0_23_193
*699 FILLER_0_23_205
*700 FILLER_0_23_217
*701 FILLER_0_23_223
*702 FILLER_0_23_225
*703 FILLER_0_23_237
*704 FILLER_0_23_249
*705 FILLER_0_23_261
*706 FILLER_0_23_27
*707 FILLER_0_23_273
*708 FILLER_0_23_279
*709 FILLER_0_23_281
*710 FILLER_0_23_293
*711 FILLER_0_23_3
*712 FILLER_0_23_305
*713 FILLER_0_23_317
*714 FILLER_0_23_329
*715 FILLER_0_23_39
*716 FILLER_0_23_51
*717 FILLER_0_23_55
*718 FILLER_0_23_57
*719 FILLER_0_23_69
*720 FILLER_0_23_81
*721 FILLER_0_23_93
*722 FILLER_0_24_109
*723 FILLER_0_24_121
*724 FILLER_0_24_133
*725 FILLER_0_24_139
*726 FILLER_0_24_141
*727 FILLER_0_24_15
*728 FILLER_0_24_153
*729 FILLER_0_24_165
*730 FILLER_0_24_177
*731 FILLER_0_24_189
*732 FILLER_0_24_195
*733 FILLER_0_24_197
*734 FILLER_0_24_209
*735 FILLER_0_24_221
*736 FILLER_0_24_233
*737 FILLER_0_24_245
*738 FILLER_0_24_251
*739 FILLER_0_24_253
*740 FILLER_0_24_265
*741 FILLER_0_24_27
*742 FILLER_0_24_277
*743 FILLER_0_24_289
*744 FILLER_0_24_29
*745 FILLER_0_24_3
*746 FILLER_0_24_301
*747 FILLER_0_24_307
*748 FILLER_0_24_309
*749 FILLER_0_24_321
*750 FILLER_0_24_333
*751 FILLER_0_24_41
*752 FILLER_0_24_53
*753 FILLER_0_24_65
*754 FILLER_0_24_77
*755 FILLER_0_24_83
*756 FILLER_0_24_85
*757 FILLER_0_24_97
*758 FILLER_0_25_105
*759 FILLER_0_25_111
*760 FILLER_0_25_113
*761 FILLER_0_25_125
*762 FILLER_0_25_137
*763 FILLER_0_25_149
*764 FILLER_0_25_15
*765 FILLER_0_25_161
*766 FILLER_0_25_167
*767 FILLER_0_25_169
*768 FILLER_0_25_181
*769 FILLER_0_25_193
*770 FILLER_0_25_205
*771 FILLER_0_25_217
*772 FILLER_0_25_223
*773 FILLER_0_25_225
*774 FILLER_0_25_237
*775 FILLER_0_25_249
*776 FILLER_0_25_261
*777 FILLER_0_25_27
*778 FILLER_0_25_273
*779 FILLER_0_25_279
*780 FILLER_0_25_281
*781 FILLER_0_25_293
*782 FILLER_0_25_3
*783 FILLER_0_25_305
*784 FILLER_0_25_317
*785 FILLER_0_25_329
*786 FILLER_0_25_39
*787 FILLER_0_25_51
*788 FILLER_0_25_55
*789 FILLER_0_25_57
*790 FILLER_0_25_69
*791 FILLER_0_25_81
*792 FILLER_0_25_93
*793 FILLER_0_26_109
*794 FILLER_0_26_121
*795 FILLER_0_26_133
*796 FILLER_0_26_139
*797 FILLER_0_26_141
*798 FILLER_0_26_15
*799 FILLER_0_26_153
*800 FILLER_0_26_165
*801 FILLER_0_26_177
*802 FILLER_0_26_189
*803 FILLER_0_26_195
*804 FILLER_0_26_197
*805 FILLER_0_26_209
*806 FILLER_0_26_221
*807 FILLER_0_26_233
*808 FILLER_0_26_245
*809 FILLER_0_26_251
*810 FILLER_0_26_253
*811 FILLER_0_26_265
*812 FILLER_0_26_27
*813 FILLER_0_26_277
*814 FILLER_0_26_289
*815 FILLER_0_26_29
*816 FILLER_0_26_3
*817 FILLER_0_26_301
*818 FILLER_0_26_307
*819 FILLER_0_26_309
*820 FILLER_0_26_321
*821 FILLER_0_26_333
*822 FILLER_0_26_41
*823 FILLER_0_26_53
*824 FILLER_0_26_65
*825 FILLER_0_26_77
*826 FILLER_0_26_83
*827 FILLER_0_26_85
*828 FILLER_0_26_97
*829 FILLER_0_27_105
*830 FILLER_0_27_111
*831 FILLER_0_27_113
*832 FILLER_0_27_125
*833 FILLER_0_27_137
*834 FILLER_0_27_149
*835 FILLER_0_27_15
*836 FILLER_0_27_161
*837 FILLER_0_27_167
*838 FILLER_0_27_169
*839 FILLER_0_27_181
*840 FILLER_0_27_193
*841 FILLER_0_27_205
*842 FILLER_0_27_217
*843 FILLER_0_27_223
*844 FILLER_0_27_225
*845 FILLER_0_27_237
*846 FILLER_0_27_249
*847 FILLER_0_27_261
*848 FILLER_0_27_27
*849 FILLER_0_27_273
*850 FILLER_0_27_279
*851 FILLER_0_27_281
*852 FILLER_0_27_293
*853 FILLER_0_27_3
*854 FILLER_0_27_305
*855 FILLER_0_27_317
*856 FILLER_0_27_329
*857 FILLER_0_27_39
*858 FILLER_0_27_51
*859 FILLER_0_27_55
*860 FILLER_0_27_57
*861 FILLER_0_27_69
*862 FILLER_0_27_81
*863 FILLER_0_27_93
*864 FILLER_0_28_109
*865 FILLER_0_28_121
*866 FILLER_0_28_133
*867 FILLER_0_28_139
*868 FILLER_0_28_141
*869 FILLER_0_28_15
*870 FILLER_0_28_153
*871 FILLER_0_28_165
*872 FILLER_0_28_177
*873 FILLER_0_28_189
*874 FILLER_0_28_195
*875 FILLER_0_28_197
*876 FILLER_0_28_209
*877 FILLER_0_28_221
*878 FILLER_0_28_233
*879 FILLER_0_28_245
*880 FILLER_0_28_251
*881 FILLER_0_28_253
*882 FILLER_0_28_265
*883 FILLER_0_28_27
*884 FILLER_0_28_277
*885 FILLER_0_28_289
*886 FILLER_0_28_29
*887 FILLER_0_28_3
*888 FILLER_0_28_301
*889 FILLER_0_28_307
*890 FILLER_0_28_309
*891 FILLER_0_28_321
*892 FILLER_0_28_333
*893 FILLER_0_28_41
*894 FILLER_0_28_53
*895 FILLER_0_28_65
*896 FILLER_0_28_77
*897 FILLER_0_28_83
*898 FILLER_0_28_85
*899 FILLER_0_28_97
*900 FILLER_0_29_105
*901 FILLER_0_29_111
*902 FILLER_0_29_113
*903 FILLER_0_29_125
*904 FILLER_0_29_137
*905 FILLER_0_29_149
*906 FILLER_0_29_15
*907 FILLER_0_29_161
*908 FILLER_0_29_167
*909 FILLER_0_29_169
*910 FILLER_0_29_181
*911 FILLER_0_29_193
*912 FILLER_0_29_205
*913 FILLER_0_29_217
*914 FILLER_0_29_223
*915 FILLER_0_29_225
*916 FILLER_0_29_237
*917 FILLER_0_29_249
*918 FILLER_0_29_261
*919 FILLER_0_29_27
*920 FILLER_0_29_273
*921 FILLER_0_29_279
*922 FILLER_0_29_281
*923 FILLER_0_29_293
*924 FILLER_0_29_3
*925 FILLER_0_29_305
*926 FILLER_0_29_317
*927 FILLER_0_29_329
*928 FILLER_0_29_39
*929 FILLER_0_29_51
*930 FILLER_0_29_55
*931 FILLER_0_29_57
*932 FILLER_0_29_69
*933 FILLER_0_29_81
*934 FILLER_0_29_93
*935 FILLER_0_2_109
*936 FILLER_0_2_121
*937 FILLER_0_2_133
*938 FILLER_0_2_139
*939 FILLER_0_2_141
*940 FILLER_0_2_15
*941 FILLER_0_2_153
*942 FILLER_0_2_165
*943 FILLER_0_2_177
*944 FILLER_0_2_189
*945 FILLER_0_2_195
*946 FILLER_0_2_197
*947 FILLER_0_2_209
*948 FILLER_0_2_221
*949 FILLER_0_2_233
*950 FILLER_0_2_245
*951 FILLER_0_2_251
*952 FILLER_0_2_253
*953 FILLER_0_2_265
*954 FILLER_0_2_27
*955 FILLER_0_2_277
*956 FILLER_0_2_289
*957 FILLER_0_2_29
*958 FILLER_0_2_3
*959 FILLER_0_2_301
*960 FILLER_0_2_307
*961 FILLER_0_2_309
*962 FILLER_0_2_321
*963 FILLER_0_2_333
*964 FILLER_0_2_41
*965 FILLER_0_2_53
*966 FILLER_0_2_65
*967 FILLER_0_2_77
*968 FILLER_0_2_83
*969 FILLER_0_2_85
*970 FILLER_0_2_97
*971 FILLER_0_30_109
*972 FILLER_0_30_121
*973 FILLER_0_30_133
*974 FILLER_0_30_139
*975 FILLER_0_30_141
*976 FILLER_0_30_15
*977 FILLER_0_30_153
*978 FILLER_0_30_165
*979 FILLER_0_30_177
*980 FILLER_0_30_189
*981 FILLER_0_30_195
*982 FILLER_0_30_197
*983 FILLER_0_30_209
*984 FILLER_0_30_223
*985 FILLER_0_30_229
*986 FILLER_0_30_233
*987 FILLER_0_30_245
*988 FILLER_0_30_251
*989 FILLER_0_30_253
*990 FILLER_0_30_261
*991 FILLER_0_30_27
*992 FILLER_0_30_272
*993 FILLER_0_30_284
*994 FILLER_0_30_29
*995 FILLER_0_30_296
*996 FILLER_0_30_3
*997 FILLER_0_30_309
*998 FILLER_0_30_321
*999 FILLER_0_30_333
*1000 FILLER_0_30_41
*1001 FILLER_0_30_53
*1002 FILLER_0_30_65
*1003 FILLER_0_30_77
*1004 FILLER_0_30_83
*1005 FILLER_0_30_85
*1006 FILLER_0_30_97
*1007 FILLER_0_31_105
*1008 FILLER_0_31_111
*1009 FILLER_0_31_113
*1010 FILLER_0_31_125
*1011 FILLER_0_31_137
*1012 FILLER_0_31_149
*1013 FILLER_0_31_15
*1014 FILLER_0_31_161
*1015 FILLER_0_31_167
*1016 FILLER_0_31_169
*1017 FILLER_0_31_181
*1018 FILLER_0_31_193
*1019 FILLER_0_31_205
*1020 FILLER_0_31_217
*1021 FILLER_0_31_223
*1022 FILLER_0_31_225
*1023 FILLER_0_31_238
*1024 FILLER_0_31_242
*1025 FILLER_0_31_254
*1026 FILLER_0_31_266
*1027 FILLER_0_31_27
*1028 FILLER_0_31_278
*1029 FILLER_0_31_281
*1030 FILLER_0_31_285
*1031 FILLER_0_31_3
*1032 FILLER_0_31_300
*1033 FILLER_0_31_305
*1034 FILLER_0_31_317
*1035 FILLER_0_31_329
*1036 FILLER_0_31_39
*1037 FILLER_0_31_51
*1038 FILLER_0_31_55
*1039 FILLER_0_31_57
*1040 FILLER_0_31_69
*1041 FILLER_0_31_81
*1042 FILLER_0_31_93
*1043 FILLER_0_32_109
*1044 FILLER_0_32_121
*1045 FILLER_0_32_133
*1046 FILLER_0_32_139
*1047 FILLER_0_32_141
*1048 FILLER_0_32_15
*1049 FILLER_0_32_153
*1050 FILLER_0_32_165
*1051 FILLER_0_32_177
*1052 FILLER_0_32_209
*1053 FILLER_0_32_213
*1054 FILLER_0_32_223
*1055 FILLER_0_32_236
*1056 FILLER_0_32_246
*1057 FILLER_0_32_253
*1058 FILLER_0_32_269
*1059 FILLER_0_32_27
*1060 FILLER_0_32_279
*1061 FILLER_0_32_287
*1062 FILLER_0_32_29
*1063 FILLER_0_32_293
*1064 FILLER_0_32_3
*1065 FILLER_0_32_307
*1066 FILLER_0_32_316
*1067 FILLER_0_32_328
*1068 FILLER_0_32_334
*1069 FILLER_0_32_41
*1070 FILLER_0_32_53
*1071 FILLER_0_32_65
*1072 FILLER_0_32_77
*1073 FILLER_0_32_83
*1074 FILLER_0_32_85
*1075 FILLER_0_32_97
*1076 FILLER_0_33_105
*1077 FILLER_0_33_111
*1078 FILLER_0_33_113
*1079 FILLER_0_33_125
*1080 FILLER_0_33_137
*1081 FILLER_0_33_149
*1082 FILLER_0_33_15
*1083 FILLER_0_33_161
*1084 FILLER_0_33_167
*1085 FILLER_0_33_169
*1086 FILLER_0_33_188
*1087 FILLER_0_33_196
*1088 FILLER_0_33_204
*1089 FILLER_0_33_215
*1090 FILLER_0_33_223
*1091 FILLER_0_33_225
*1092 FILLER_0_33_234
*1093 FILLER_0_33_242
*1094 FILLER_0_33_252
*1095 FILLER_0_33_264
*1096 FILLER_0_33_27
*1097 FILLER_0_33_276
*1098 FILLER_0_33_281
*1099 FILLER_0_33_299
*1100 FILLER_0_33_3
*1101 FILLER_0_33_309
*1102 FILLER_0_33_321
*1103 FILLER_0_33_333
*1104 FILLER_0_33_39
*1105 FILLER_0_33_51
*1106 FILLER_0_33_55
*1107 FILLER_0_33_57
*1108 FILLER_0_33_69
*1109 FILLER_0_33_81
*1110 FILLER_0_33_93
*1111 FILLER_0_34_109
*1112 FILLER_0_34_121
*1113 FILLER_0_34_133
*1114 FILLER_0_34_139
*1115 FILLER_0_34_141
*1116 FILLER_0_34_15
*1117 FILLER_0_34_153
*1118 FILLER_0_34_165
*1119 FILLER_0_34_191
*1120 FILLER_0_34_195
*1121 FILLER_0_34_221
*1122 FILLER_0_34_242
*1123 FILLER_0_34_250
*1124 FILLER_0_34_256
*1125 FILLER_0_34_262
*1126 FILLER_0_34_268
*1127 FILLER_0_34_27
*1128 FILLER_0_34_272
*1129 FILLER_0_34_29
*1130 FILLER_0_34_3
*1131 FILLER_0_34_325
*1132 FILLER_0_34_333
*1133 FILLER_0_34_41
*1134 FILLER_0_34_53
*1135 FILLER_0_34_65
*1136 FILLER_0_34_77
*1137 FILLER_0_34_83
*1138 FILLER_0_34_85
*1139 FILLER_0_34_97
*1140 FILLER_0_35_105
*1141 FILLER_0_35_111
*1142 FILLER_0_35_113
*1143 FILLER_0_35_125
*1144 FILLER_0_35_137
*1145 FILLER_0_35_149
*1146 FILLER_0_35_15
*1147 FILLER_0_35_161
*1148 FILLER_0_35_167
*1149 FILLER_0_35_169
*1150 FILLER_0_35_177
*1151 FILLER_0_35_202
*1152 FILLER_0_35_206
*1153 FILLER_0_35_216
*1154 FILLER_0_35_235
*1155 FILLER_0_35_239
*1156 FILLER_0_35_253
*1157 FILLER_0_35_27
*1158 FILLER_0_35_276
*1159 FILLER_0_35_281
*1160 FILLER_0_35_290
*1161 FILLER_0_35_3
*1162 FILLER_0_35_302
*1163 FILLER_0_35_309
*1164 FILLER_0_35_321
*1165 FILLER_0_35_333
*1166 FILLER_0_35_39
*1167 FILLER_0_35_51
*1168 FILLER_0_35_55
*1169 FILLER_0_35_57
*1170 FILLER_0_35_69
*1171 FILLER_0_35_81
*1172 FILLER_0_35_93
*1173 FILLER_0_36_109
*1174 FILLER_0_36_121
*1175 FILLER_0_36_133
*1176 FILLER_0_36_139
*1177 FILLER_0_36_141
*1178 FILLER_0_36_15
*1179 FILLER_0_36_170
*1180 FILLER_0_36_188
*1181 FILLER_0_36_206
*1182 FILLER_0_36_216
*1183 FILLER_0_36_220
*1184 FILLER_0_36_226
*1185 FILLER_0_36_238
*1186 FILLER_0_36_244
*1187 FILLER_0_36_251
*1188 FILLER_0_36_253
*1189 FILLER_0_36_27
*1190 FILLER_0_36_271
*1191 FILLER_0_36_29
*1192 FILLER_0_36_293
*1193 FILLER_0_36_3
*1194 FILLER_0_36_302
*1195 FILLER_0_36_307
*1196 FILLER_0_36_317
*1197 FILLER_0_36_329
*1198 FILLER_0_36_41
*1199 FILLER_0_36_53
*1200 FILLER_0_36_65
*1201 FILLER_0_36_77
*1202 FILLER_0_36_83
*1203 FILLER_0_36_85
*1204 FILLER_0_36_97
*1205 FILLER_0_37_105
*1206 FILLER_0_37_111
*1207 FILLER_0_37_113
*1208 FILLER_0_37_125
*1209 FILLER_0_37_137
*1210 FILLER_0_37_149
*1211 FILLER_0_37_15
*1212 FILLER_0_37_161
*1213 FILLER_0_37_167
*1214 FILLER_0_37_169
*1215 FILLER_0_37_181
*1216 FILLER_0_37_214
*1217 FILLER_0_37_231
*1218 FILLER_0_37_259
*1219 FILLER_0_37_27
*1220 FILLER_0_37_278
*1221 FILLER_0_37_287
*1222 FILLER_0_37_299
*1223 FILLER_0_37_3
*1224 FILLER_0_37_315
*1225 FILLER_0_37_327
*1226 FILLER_0_37_39
*1227 FILLER_0_37_51
*1228 FILLER_0_37_55
*1229 FILLER_0_37_57
*1230 FILLER_0_37_69
*1231 FILLER_0_37_81
*1232 FILLER_0_37_93
*1233 FILLER_0_38_10
*1234 FILLER_0_38_102
*1235 FILLER_0_38_106
*1236 FILLER_0_38_110
*1237 FILLER_0_38_113
*1238 FILLER_0_38_118
*1239 FILLER_0_38_122
*1240 FILLER_0_38_126
*1241 FILLER_0_38_130
*1242 FILLER_0_38_134
*1243 FILLER_0_38_14
*1244 FILLER_0_38_144
*1245 FILLER_0_38_150
*1246 FILLER_0_38_154
*1247 FILLER_0_38_158
*1248 FILLER_0_38_166
*1249 FILLER_0_38_18
*1250 FILLER_0_38_186
*1251 FILLER_0_38_194
*1252 FILLER_0_38_197
*1253 FILLER_0_38_22
*1254 FILLER_0_38_223
*1255 FILLER_0_38_225
*1256 FILLER_0_38_233
*1257 FILLER_0_38_239
*1258 FILLER_0_38_246
*1259 FILLER_0_38_257
*1260 FILLER_0_38_263
*1261 FILLER_0_38_273
*1262 FILLER_0_38_278
*1263 FILLER_0_38_313
*1264 FILLER_0_38_319
*1265 FILLER_0_38_32
*1266 FILLER_0_38_333
*1267 FILLER_0_38_38
*1268 FILLER_0_38_42
*1269 FILLER_0_38_46
*1270 FILLER_0_38_50
*1271 FILLER_0_38_54
*1272 FILLER_0_38_57
*1273 FILLER_0_38_6
*1274 FILLER_0_38_62
*1275 FILLER_0_38_66
*1276 FILLER_0_38_70
*1277 FILLER_0_38_74
*1278 FILLER_0_38_78
*1279 FILLER_0_38_88
*1280 FILLER_0_38_94
*1281 FILLER_0_38_98
*1282 FILLER_0_3_105
*1283 FILLER_0_3_111
*1284 FILLER_0_3_113
*1285 FILLER_0_3_125
*1286 FILLER_0_3_137
*1287 FILLER_0_3_149
*1288 FILLER_0_3_15
*1289 FILLER_0_3_161
*1290 FILLER_0_3_167
*1291 FILLER_0_3_169
*1292 FILLER_0_3_181
*1293 FILLER_0_3_193
*1294 FILLER_0_3_205
*1295 FILLER_0_3_217
*1296 FILLER_0_3_223
*1297 FILLER_0_3_225
*1298 FILLER_0_3_237
*1299 FILLER_0_3_249
*1300 FILLER_0_3_261
*1301 FILLER_0_3_27
*1302 FILLER_0_3_273
*1303 FILLER_0_3_279
*1304 FILLER_0_3_281
*1305 FILLER_0_3_293
*1306 FILLER_0_3_3
*1307 FILLER_0_3_305
*1308 FILLER_0_3_317
*1309 FILLER_0_3_329
*1310 FILLER_0_3_39
*1311 FILLER_0_3_51
*1312 FILLER_0_3_55
*1313 FILLER_0_3_57
*1314 FILLER_0_3_69
*1315 FILLER_0_3_81
*1316 FILLER_0_3_93
*1317 FILLER_0_4_109
*1318 FILLER_0_4_121
*1319 FILLER_0_4_133
*1320 FILLER_0_4_139
*1321 FILLER_0_4_141
*1322 FILLER_0_4_15
*1323 FILLER_0_4_153
*1324 FILLER_0_4_165
*1325 FILLER_0_4_177
*1326 FILLER_0_4_189
*1327 FILLER_0_4_195
*1328 FILLER_0_4_197
*1329 FILLER_0_4_209
*1330 FILLER_0_4_221
*1331 FILLER_0_4_233
*1332 FILLER_0_4_245
*1333 FILLER_0_4_251
*1334 FILLER_0_4_253
*1335 FILLER_0_4_265
*1336 FILLER_0_4_27
*1337 FILLER_0_4_277
*1338 FILLER_0_4_289
*1339 FILLER_0_4_29
*1340 FILLER_0_4_3
*1341 FILLER_0_4_301
*1342 FILLER_0_4_307
*1343 FILLER_0_4_309
*1344 FILLER_0_4_321
*1345 FILLER_0_4_333
*1346 FILLER_0_4_41
*1347 FILLER_0_4_53
*1348 FILLER_0_4_65
*1349 FILLER_0_4_77
*1350 FILLER_0_4_83
*1351 FILLER_0_4_85
*1352 FILLER_0_4_97
*1353 FILLER_0_5_105
*1354 FILLER_0_5_111
*1355 FILLER_0_5_113
*1356 FILLER_0_5_125
*1357 FILLER_0_5_137
*1358 FILLER_0_5_149
*1359 FILLER_0_5_15
*1360 FILLER_0_5_161
*1361 FILLER_0_5_167
*1362 FILLER_0_5_169
*1363 FILLER_0_5_181
*1364 FILLER_0_5_193
*1365 FILLER_0_5_205
*1366 FILLER_0_5_217
*1367 FILLER_0_5_223
*1368 FILLER_0_5_225
*1369 FILLER_0_5_237
*1370 FILLER_0_5_249
*1371 FILLER_0_5_261
*1372 FILLER_0_5_27
*1373 FILLER_0_5_273
*1374 FILLER_0_5_279
*1375 FILLER_0_5_281
*1376 FILLER_0_5_293
*1377 FILLER_0_5_3
*1378 FILLER_0_5_305
*1379 FILLER_0_5_317
*1380 FILLER_0_5_329
*1381 FILLER_0_5_39
*1382 FILLER_0_5_51
*1383 FILLER_0_5_55
*1384 FILLER_0_5_57
*1385 FILLER_0_5_69
*1386 FILLER_0_5_81
*1387 FILLER_0_5_93
*1388 FILLER_0_6_109
*1389 FILLER_0_6_121
*1390 FILLER_0_6_133
*1391 FILLER_0_6_139
*1392 FILLER_0_6_141
*1393 FILLER_0_6_15
*1394 FILLER_0_6_153
*1395 FILLER_0_6_165
*1396 FILLER_0_6_177
*1397 FILLER_0_6_189
*1398 FILLER_0_6_195
*1399 FILLER_0_6_197
*1400 FILLER_0_6_209
*1401 FILLER_0_6_221
*1402 FILLER_0_6_233
*1403 FILLER_0_6_245
*1404 FILLER_0_6_251
*1405 FILLER_0_6_253
*1406 FILLER_0_6_265
*1407 FILLER_0_6_27
*1408 FILLER_0_6_277
*1409 FILLER_0_6_289
*1410 FILLER_0_6_29
*1411 FILLER_0_6_3
*1412 FILLER_0_6_301
*1413 FILLER_0_6_307
*1414 FILLER_0_6_309
*1415 FILLER_0_6_321
*1416 FILLER_0_6_333
*1417 FILLER_0_6_41
*1418 FILLER_0_6_53
*1419 FILLER_0_6_65
*1420 FILLER_0_6_77
*1421 FILLER_0_6_83
*1422 FILLER_0_6_85
*1423 FILLER_0_6_97
*1424 FILLER_0_7_105
*1425 FILLER_0_7_111
*1426 FILLER_0_7_113
*1427 FILLER_0_7_125
*1428 FILLER_0_7_137
*1429 FILLER_0_7_149
*1430 FILLER_0_7_15
*1431 FILLER_0_7_161
*1432 FILLER_0_7_167
*1433 FILLER_0_7_169
*1434 FILLER_0_7_181
*1435 FILLER_0_7_193
*1436 FILLER_0_7_205
*1437 FILLER_0_7_217
*1438 FILLER_0_7_223
*1439 FILLER_0_7_225
*1440 FILLER_0_7_237
*1441 FILLER_0_7_249
*1442 FILLER_0_7_261
*1443 FILLER_0_7_27
*1444 FILLER_0_7_273
*1445 FILLER_0_7_279
*1446 FILLER_0_7_281
*1447 FILLER_0_7_293
*1448 FILLER_0_7_3
*1449 FILLER_0_7_305
*1450 FILLER_0_7_317
*1451 FILLER_0_7_329
*1452 FILLER_0_7_39
*1453 FILLER_0_7_51
*1454 FILLER_0_7_55
*1455 FILLER_0_7_57
*1456 FILLER_0_7_69
*1457 FILLER_0_7_81
*1458 FILLER_0_7_93
*1459 FILLER_0_8_109
*1460 FILLER_0_8_121
*1461 FILLER_0_8_133
*1462 FILLER_0_8_139
*1463 FILLER_0_8_141
*1464 FILLER_0_8_15
*1465 FILLER_0_8_153
*1466 FILLER_0_8_165
*1467 FILLER_0_8_177
*1468 FILLER_0_8_189
*1469 FILLER_0_8_195
*1470 FILLER_0_8_197
*1471 FILLER_0_8_209
*1472 FILLER_0_8_221
*1473 FILLER_0_8_233
*1474 FILLER_0_8_245
*1475 FILLER_0_8_251
*1476 FILLER_0_8_253
*1477 FILLER_0_8_265
*1478 FILLER_0_8_27
*1479 FILLER_0_8_277
*1480 FILLER_0_8_289
*1481 FILLER_0_8_29
*1482 FILLER_0_8_3
*1483 FILLER_0_8_301
*1484 FILLER_0_8_307
*1485 FILLER_0_8_309
*1486 FILLER_0_8_321
*1487 FILLER_0_8_333
*1488 FILLER_0_8_41
*1489 FILLER_0_8_53
*1490 FILLER_0_8_65
*1491 FILLER_0_8_77
*1492 FILLER_0_8_83
*1493 FILLER_0_8_85
*1494 FILLER_0_8_97
*1495 FILLER_0_9_105
*1496 FILLER_0_9_111
*1497 FILLER_0_9_113
*1498 FILLER_0_9_125
*1499 FILLER_0_9_137