*SPEF "ieee 1481-1999"
*DESIGN "tt_um_DigitalClockTop"
*DATE "00:00:46 Friday April 19, 2024"
*VENDOR "The OpenROAD Project"
*PROGRAM "OpenROAD"
*VERSION "0889970d1790a2617e69f253221b8bd7626e51dc"
*DESIGN_FLOW "NAME_SCOPE LOCAL" "PIN_CAP NONE"
*DIVIDER /
*DELIMITER :
*BUS_DELIMITER []
*T_UNIT 1 NS
*C_UNIT 1 PF
*R_UNIT 1 OHM
*L_UNIT 1 HENRY

*NAME_MAP
*3 clk
*4 ena
*5 rst_n
*6 ui_in[0]
*7 ui_in[1]
*8 ui_in[2]
*9 ui_in[3]
*10 ui_in[4]
*11 ui_in[5]
*12 ui_in[6]
*13 ui_in[7]
*14 uio_in[0]
*15 uio_in[1]
*16 uio_in[2]
*17 uio_in[3]
*18 uio_in[4]
*19 uio_in[5]
*20 uio_in[6]
*21 uio_in[7]
*22 net25
*23 net26
*24 net27
*25 net28
*26 net29
*27 net30
*28 net21
*29 net22
*30 uio_out[0]
*31 uio_out[1]
*32 uio_out[2]
*33 uio_out[3]
*34 uio_out[4]
*35 uio_out[5]
*36 net23
*37 net24
*38 uo_out[0]
*39 uo_out[1]
*40 uo_out[2]
*41 uo_out[3]
*42 uo_out[4]
*43 uo_out[5]
*44 uo_out[6]
*45 net31
*46 _000_
*47 _001_
*48 _002_
*49 _003_
*50 _004_
*51 _005_
*52 _006_
*53 _007_
*54 _008_
*55 _009_
*56 _010_
*57 _011_
*58 _012_
*59 _013_
*60 _014_
*61 _015_
*62 _016_
*63 _017_
*64 _018_
*65 _019_
*66 _020_
*67 _021_
*68 _022_
*69 _023_
*70 _024_
*71 _025_
*72 _026_
*73 _027_
*74 _028_
*75 _029_
*76 _030_
*77 _031_
*78 _032_
*79 _033_
*80 _034_
*81 _035_
*82 _036_
*83 _037_
*84 _038_
*85 _039_
*86 _040_
*87 _041_
*88 _042_
*89 _043_
*90 _044_
*91 _045_
*92 _046_
*93 _047_
*94 _048_
*95 _049_
*96 _050_
*97 _051_
*98 _052_
*99 _053_
*100 _054_
*101 _055_
*102 _056_
*103 _057_
*104 _058_
*105 _059_
*106 _060_
*107 _061_
*108 _062_
*109 _063_
*110 _064_
*111 _065_
*112 _066_
*113 _067_
*114 _068_
*115 _069_
*116 _070_
*117 _071_
*118 _072_
*119 _073_
*120 _074_
*121 _075_
*122 _076_
*123 _077_
*124 _078_
*125 _079_
*126 _080_
*127 _081_
*128 _082_
*129 _083_
*130 _084_
*131 _085_
*132 _086_
*133 _087_
*134 _088_
*135 _089_
*136 _090_
*137 _091_
*138 _092_
*139 _093_
*140 _094_
*141 _095_
*142 _096_
*143 _097_
*144 _098_
*145 _099_
*146 _100_
*147 _101_
*148 _102_
*149 _103_
*150 _104_
*151 _105_
*152 _106_
*153 _107_
*154 _108_
*155 _109_
*156 _110_
*157 _111_
*158 _112_
*159 _113_
*160 _114_
*161 _115_
*162 _116_
*163 _117_
*164 _118_
*165 _119_
*166 _120_
*167 _121_
*168 _122_
*169 _123_
*170 _124_
*171 _125_
*172 _126_
*173 _127_
*174 _128_
*175 _129_
*176 _130_
*177 _131_
*178 _132_
*179 _133_
*180 _134_
*181 _135_
*182 _136_
*183 _137_
*184 _138_
*185 _139_
*186 _140_
*187 _141_
*188 _142_
*189 _143_
*190 _144_
*191 _145_
*192 _146_
*193 _147_
*194 _148_
*195 _149_
*196 _150_
*197 _151_
*198 _152_
*199 _153_
*200 _154_
*201 _155_
*202 _156_
*203 _157_
*204 _158_
*205 _159_
*206 _160_
*207 _161_
*208 _162_
*209 _163_
*210 _164_
*211 _165_
*212 _166_
*213 _167_
*214 _168_
*215 _169_
*216 _170_
*217 _171_
*218 _172_
*219 _173_
*220 _174_
*221 _175_
*222 _176_
*223 _177_
*224 _178_
*225 _179_
*226 _180_
*227 _181_
*228 _182_
*229 _183_
*230 _184_
*231 _185_
*232 _186_
*233 _187_
*234 _188_
*235 _189_
*236 _190_
*237 _191_
*238 _192_
*239 _193_
*240 _194_
*241 _195_
*242 _196_
*243 _197_
*244 _198_
*245 _199_
*246 _200_
*247 _201_
*248 _202_
*249 _203_
*250 _204_
*251 _205_
*252 _206_
*253 _207_
*254 _208_
*255 _209_
*256 _210_
*257 _211_
*258 _212_
*259 _213_
*260 _214_
*261 _215_
*262 _216_
*263 _217_
*264 _218_
*265 _219_
*266 _220_
*267 _221_
*268 _222_
*269 _223_
*270 _224_
*271 _225_
*272 _226_
*273 _227_
*274 _228_
*275 _229_
*276 _230_
*277 _231_
*278 _232_
*279 _233_
*280 _234_
*281 _235_
*282 _236_
*283 _237_
*284 _238_
*285 _239_
*286 _240_
*287 _241_
*288 _242_
*289 _243_
*290 _244_
*291 _245_
*292 _246_
*293 _247_
*294 _248_
*295 _249_
*296 _250_
*297 _251_
*298 _252_
*299 _253_
*300 _254_
*301 _255_
*302 _256_
*303 _257_
*304 _258_
*305 _259_
*306 _260_
*307 _261_
*308 _262_
*309 _263_
*310 _264_
*311 _265_
*312 _266_
*313 _267_
*314 _268_
*315 _269_
*316 _270_
*317 _271_
*318 _272_
*319 _273_
*320 _274_
*321 _275_
*322 _276_
*323 _277_
*324 _278_
*325 _279_
*326 _280_
*327 _281_
*328 _282_
*329 _283_
*330 _284_
*331 _285_
*332 _286_
*333 _287_
*334 _288_
*335 _289_
*336 _290_
*337 _291_
*338 _292_
*339 _293_
*340 _294_
*341 _295_
*342 _296_
*343 _297_
*344 _298_
*345 clknet_0_clk
*346 clknet_2_0__leaf_clk
*347 clknet_2_1__leaf_clk
*348 clknet_2_2__leaf_clk
*349 clknet_2_3__leaf_clk
*350 net1
*351 net10
*352 net11
*353 net12
*354 net13
*355 net14
*356 net15
*357 net16
*358 net17
*359 net18
*360 net19
*361 net2
*362 net20
*363 net3
*364 net32
*365 net33
*366 net34
*367 net35
*368 net36
*369 net37
*370 net38
*371 net39
*372 net4
*373 net40
*374 net41
*375 net42
*376 net43
*377 net44
*378 net45
*379 net46
*380 net47
*381 net48
*382 net49
*383 net5
*384 net50
*385 net51
*386 net52
*387 net53
*388 net54
*389 net55
*390 net56
*391 net57
*392 net58
*393 net59
*394 net6
*395 net60
*396 net61
*397 net62
*398 net63
*399 net64
*400 net7
*401 net8
*402 net9
*403 uut\.CLK_1hz
*404 uut\.clk_1000hz\[0\]
*405 uut\.clk_1000hz\[10\]
*406 uut\.clk_1000hz\[11\]
*407 uut\.clk_1000hz\[12\]
*408 uut\.clk_1000hz\[13\]
*409 uut\.clk_1000hz\[14\]
*410 uut\.clk_1000hz\[15\]
*411 uut\.clk_1000hz\[16\]
*412 uut\.clk_1000hz\[17\]
*413 uut\.clk_1000hz\[1\]
*414 uut\.clk_1000hz\[2\]
*415 uut\.clk_1000hz\[3\]
*416 uut\.clk_1000hz\[4\]
*417 uut\.clk_1000hz\[5\]
*418 uut\.clk_1000hz\[6\]
*419 uut\.clk_1000hz\[7\]
*420 uut\.clk_1000hz\[8\]
*421 uut\.clk_1000hz\[9\]
*422 uut\.hour_left\[0\]
*423 uut\.hour_left\[1\]
*424 uut\.hour_left\[2\]
*425 uut\.hour_left\[3\]
*426 uut\.hour_right\[0\]
*427 uut\.hour_right\[1\]
*428 uut\.hour_right\[2\]
*429 uut\.hour_right\[3\]
*430 uut\.min_left\[0\]
*431 uut\.min_left\[1\]
*432 uut\.min_left\[2\]
*433 uut\.min_left\[3\]
*434 uut\.min_right\[0\]
*435 uut\.min_right\[1\]
*436 uut\.min_right\[2\]
*437 uut\.min_right\[3\]
*438 uut\.sec_left\[0\]
*439 uut\.sec_left\[1\]
*440 uut\.sec_left\[2\]
*441 uut\.sec_left\[3\]
*442 uut\.sec_right\[0\]
*443 uut\.sec_right\[1\]
*444 uut\.sec_right\[2\]
*445 uut\.sec_right\[3\]
*446 uut\.uut\.counter\[0\]
*447 uut\.uut\.counter\[10\]
*448 uut\.uut\.counter\[11\]
*449 uut\.uut\.counter\[12\]
*450 uut\.uut\.counter\[13\]
*451 uut\.uut\.counter\[14\]
*452 uut\.uut\.counter\[15\]
*453 uut\.uut\.counter\[16\]
*454 uut\.uut\.counter\[17\]
*455 uut\.uut\.counter\[18\]
*456 uut\.uut\.counter\[19\]
*457 uut\.uut\.counter\[1\]
*458 uut\.uut\.counter\[20\]
*459 uut\.uut\.counter\[21\]
*460 uut\.uut\.counter\[22\]
*461 uut\.uut\.counter\[23\]
*462 uut\.uut\.counter\[24\]
*463 uut\.uut\.counter\[25\]
*464 uut\.uut\.counter\[2\]
*465 uut\.uut\.counter\[3\]
*466 uut\.uut\.counter\[4\]
*467 uut\.uut\.counter\[5\]
*468 uut\.uut\.counter\[6\]
*469 uut\.uut\.counter\[7\]
*470 uut\.uut\.counter\[8\]
*471 uut\.uut\.counter\[9\]
*472 FILLER_0_0_109
*473 FILLER_0_0_113
*474 FILLER_0_0_125
*475 FILLER_0_0_137
*476 FILLER_0_0_141
*477 FILLER_0_0_15
*478 FILLER_0_0_153
*479 FILLER_0_0_165
*480 FILLER_0_0_169
*481 FILLER_0_0_181
*482 FILLER_0_0_193
*483 FILLER_0_0_197
*484 FILLER_0_0_209
*485 FILLER_0_0_221
*486 FILLER_0_0_225
*487 FILLER_0_0_237
*488 FILLER_0_0_249
*489 FILLER_0_0_253
*490 FILLER_0_0_265
*491 FILLER_0_0_27
*492 FILLER_0_0_277
*493 FILLER_0_0_281
*494 FILLER_0_0_29
*495 FILLER_0_0_293
*496 FILLER_0_0_3
*497 FILLER_0_0_305
*498 FILLER_0_0_309
*499 FILLER_0_0_321
*500 FILLER_0_0_333
*501 FILLER_0_0_41
*502 FILLER_0_0_53
*503 FILLER_0_0_57
*504 FILLER_0_0_69
*505 FILLER_0_0_81
*506 FILLER_0_0_85
*507 FILLER_0_0_97
*508 FILLER_0_10_109
*509 FILLER_0_10_121
*510 FILLER_0_10_133
*511 FILLER_0_10_139
*512 FILLER_0_10_141
*513 FILLER_0_10_15
*514 FILLER_0_10_153
*515 FILLER_0_10_165
*516 FILLER_0_10_177
*517 FILLER_0_10_189
*518 FILLER_0_10_195
*519 FILLER_0_10_197
*520 FILLER_0_10_209
*521 FILLER_0_10_221
*522 FILLER_0_10_233
*523 FILLER_0_10_245
*524 FILLER_0_10_251
*525 FILLER_0_10_253
*526 FILLER_0_10_265
*527 FILLER_0_10_27
*528 FILLER_0_10_277
*529 FILLER_0_10_289
*530 FILLER_0_10_29
*531 FILLER_0_10_3
*532 FILLER_0_10_301
*533 FILLER_0_10_307
*534 FILLER_0_10_309
*535 FILLER_0_10_321
*536 FILLER_0_10_333
*537 FILLER_0_10_41
*538 FILLER_0_10_53
*539 FILLER_0_10_65
*540 FILLER_0_10_77
*541 FILLER_0_10_83
*542 FILLER_0_10_85
*543 FILLER_0_10_97
*544 FILLER_0_11_105
*545 FILLER_0_11_111
*546 FILLER_0_11_113
*547 FILLER_0_11_125
*548 FILLER_0_11_137
*549 FILLER_0_11_149
*550 FILLER_0_11_15
*551 FILLER_0_11_161
*552 FILLER_0_11_167
*553 FILLER_0_11_169
*554 FILLER_0_11_181
*555 FILLER_0_11_193
*556 FILLER_0_11_205
*557 FILLER_0_11_217
*558 FILLER_0_11_223
*559 FILLER_0_11_225
*560 FILLER_0_11_237
*561 FILLER_0_11_249
*562 FILLER_0_11_261
*563 FILLER_0_11_27
*564 FILLER_0_11_273
*565 FILLER_0_11_279
*566 FILLER_0_11_281
*567 FILLER_0_11_293
*568 FILLER_0_11_3
*569 FILLER_0_11_305
*570 FILLER_0_11_317
*571 FILLER_0_11_329
*572 FILLER_0_11_39
*573 FILLER_0_11_51
*574 FILLER_0_11_55
*575 FILLER_0_11_57
*576 FILLER_0_11_69
*577 FILLER_0_11_81
*578 FILLER_0_11_93
*579 FILLER_0_12_109
*580 FILLER_0_12_121
*581 FILLER_0_12_133
*582 FILLER_0_12_139
*583 FILLER_0_12_141
*584 FILLER_0_12_15
*585 FILLER_0_12_153
*586 FILLER_0_12_165
*587 FILLER_0_12_176
*588 FILLER_0_12_188
*589 FILLER_0_12_197
*590 FILLER_0_12_209
*591 FILLER_0_12_221
*592 FILLER_0_12_233
*593 FILLER_0_12_245
*594 FILLER_0_12_251
*595 FILLER_0_12_253
*596 FILLER_0_12_265
*597 FILLER_0_12_27
*598 FILLER_0_12_277
*599 FILLER_0_12_289
*600 FILLER_0_12_29
*601 FILLER_0_12_3
*602 FILLER_0_12_301
*603 FILLER_0_12_307
*604 FILLER_0_12_309
*605 FILLER_0_12_321
*606 FILLER_0_12_333
*607 FILLER_0_12_41
*608 FILLER_0_12_53
*609 FILLER_0_12_65
*610 FILLER_0_12_77
*611 FILLER_0_12_83
*612 FILLER_0_12_85
*613 FILLER_0_12_97
*614 FILLER_0_13_105
*615 FILLER_0_13_111
*616 FILLER_0_13_113
*617 FILLER_0_13_125
*618 FILLER_0_13_15
*619 FILLER_0_13_152
*620 FILLER_0_13_166
*621 FILLER_0_13_169
*622 FILLER_0_13_186
*623 FILLER_0_13_215
*624 FILLER_0_13_223
*625 FILLER_0_13_225
*626 FILLER_0_13_249
*627 FILLER_0_13_261
*628 FILLER_0_13_27
*629 FILLER_0_13_273
*630 FILLER_0_13_279
*631 FILLER_0_13_281
*632 FILLER_0_13_293
*633 FILLER_0_13_3
*634 FILLER_0_13_305
*635 FILLER_0_13_317
*636 FILLER_0_13_329
*637 FILLER_0_13_39
*638 FILLER_0_13_51
*639 FILLER_0_13_55
*640 FILLER_0_13_57
*641 FILLER_0_13_69
*642 FILLER_0_13_81
*643 FILLER_0_13_93
*644 FILLER_0_14_109
*645 FILLER_0_14_121
*646 FILLER_0_14_129
*647 FILLER_0_14_141
*648 FILLER_0_14_15
*649 FILLER_0_14_187
*650 FILLER_0_14_218
*651 FILLER_0_14_226
*652 FILLER_0_14_253
*653 FILLER_0_14_265
*654 FILLER_0_14_27
*655 FILLER_0_14_277
*656 FILLER_0_14_289
*657 FILLER_0_14_29
*658 FILLER_0_14_3
*659 FILLER_0_14_301
*660 FILLER_0_14_307
*661 FILLER_0_14_309
*662 FILLER_0_14_321
*663 FILLER_0_14_333
*664 FILLER_0_14_41
*665 FILLER_0_14_53
*666 FILLER_0_14_65
*667 FILLER_0_14_77
*668 FILLER_0_14_83
*669 FILLER_0_14_85
*670 FILLER_0_14_97
*671 FILLER_0_15_105
*672 FILLER_0_15_111
*673 FILLER_0_15_113
*674 FILLER_0_15_125
*675 FILLER_0_15_15
*676 FILLER_0_15_150
*677 FILLER_0_15_169
*678 FILLER_0_15_220
*679 FILLER_0_15_266
*680 FILLER_0_15_27
*681 FILLER_0_15_278
*682 FILLER_0_15_281
*683 FILLER_0_15_293
*684 FILLER_0_15_3
*685 FILLER_0_15_305
*686 FILLER_0_15_317
*687 FILLER_0_15_329
*688 FILLER_0_15_39
*689 FILLER_0_15_51
*690 FILLER_0_15_55
*691 FILLER_0_15_57
*692 FILLER_0_15_69
*693 FILLER_0_15_81
*694 FILLER_0_15_93
*695 FILLER_0_16_109
*696 FILLER_0_16_121
*697 FILLER_0_16_146
*698 FILLER_0_16_15
*699 FILLER_0_16_156
*700 FILLER_0_16_168
*701 FILLER_0_16_180
*702 FILLER_0_16_186
*703 FILLER_0_16_194
*704 FILLER_0_16_197
*705 FILLER_0_16_212
*706 FILLER_0_16_220
*707 FILLER_0_16_250
*708 FILLER_0_16_261
*709 FILLER_0_16_265
*710 FILLER_0_16_269
*711 FILLER_0_16_27
*712 FILLER_0_16_287
*713 FILLER_0_16_29
*714 FILLER_0_16_299
*715 FILLER_0_16_3
*716 FILLER_0_16_307
*717 FILLER_0_16_309
*718 FILLER_0_16_321
*719 FILLER_0_16_333
*720 FILLER_0_16_41
*721 FILLER_0_16_53
*722 FILLER_0_16_65
*723 FILLER_0_16_77
*724 FILLER_0_16_83
*725 FILLER_0_16_85
*726 FILLER_0_16_97
*727 FILLER_0_17_105
*728 FILLER_0_17_111
*729 FILLER_0_17_113
*730 FILLER_0_17_125
*731 FILLER_0_17_15
*732 FILLER_0_17_163
*733 FILLER_0_17_167
*734 FILLER_0_17_169
*735 FILLER_0_17_183
*736 FILLER_0_17_196
*737 FILLER_0_17_208
*738 FILLER_0_17_220
*739 FILLER_0_17_225
*740 FILLER_0_17_268
*741 FILLER_0_17_27
*742 FILLER_0_17_279
*743 FILLER_0_17_291
*744 FILLER_0_17_299
*745 FILLER_0_17_3
*746 FILLER_0_17_307
*747 FILLER_0_17_317
*748 FILLER_0_17_329
*749 FILLER_0_17_39
*750 FILLER_0_17_51
*751 FILLER_0_17_55
*752 FILLER_0_17_57
*753 FILLER_0_17_69
*754 FILLER_0_17_81
*755 FILLER_0_17_93
*756 FILLER_0_18_109
*757 FILLER_0_18_121
*758 FILLER_0_18_133
*759 FILLER_0_18_15
*760 FILLER_0_18_157
*761 FILLER_0_18_168
*762 FILLER_0_18_193
*763 FILLER_0_18_197
*764 FILLER_0_18_205
*765 FILLER_0_18_211
*766 FILLER_0_18_223
*767 FILLER_0_18_231
*768 FILLER_0_18_245
*769 FILLER_0_18_251
*770 FILLER_0_18_253
*771 FILLER_0_18_265
*772 FILLER_0_18_27
*773 FILLER_0_18_288
*774 FILLER_0_18_29
*775 FILLER_0_18_3
*776 FILLER_0_18_306
*777 FILLER_0_18_325
*778 FILLER_0_18_333
*779 FILLER_0_18_41
*780 FILLER_0_18_53
*781 FILLER_0_18_65
*782 FILLER_0_18_77
*783 FILLER_0_18_83
*784 FILLER_0_18_85
*785 FILLER_0_18_97
*786 FILLER_0_19_105
*787 FILLER_0_19_111
*788 FILLER_0_19_113
*789 FILLER_0_19_125
*790 FILLER_0_19_15
*791 FILLER_0_19_196
*792 FILLER_0_19_202
*793 FILLER_0_19_228
*794 FILLER_0_19_240
*795 FILLER_0_19_260
*796 FILLER_0_19_27
*797 FILLER_0_19_288
*798 FILLER_0_19_3
*799 FILLER_0_19_307
*800 FILLER_0_19_313
*801 FILLER_0_19_322
*802 FILLER_0_19_334
*803 FILLER_0_19_39
*804 FILLER_0_19_51
*805 FILLER_0_19_55
*806 FILLER_0_19_57
*807 FILLER_0_19_69
*808 FILLER_0_19_81
*809 FILLER_0_19_93
*810 FILLER_0_1_105
*811 FILLER_0_1_111
*812 FILLER_0_1_113
*813 FILLER_0_1_125
*814 FILLER_0_1_137
*815 FILLER_0_1_149
*816 FILLER_0_1_15
*817 FILLER_0_1_161
*818 FILLER_0_1_167
*819 FILLER_0_1_169
*820 FILLER_0_1_181
*821 FILLER_0_1_193
*822 FILLER_0_1_205
*823 FILLER_0_1_217
*824 FILLER_0_1_223
*825 FILLER_0_1_225
*826 FILLER_0_1_237
*827 FILLER_0_1_249
*828 FILLER_0_1_261
*829 FILLER_0_1_27
*830 FILLER_0_1_273
*831 FILLER_0_1_279
*832 FILLER_0_1_281
*833 FILLER_0_1_293
*834 FILLER_0_1_3
*835 FILLER_0_1_305
*836 FILLER_0_1_317
*837 FILLER_0_1_329
*838 FILLER_0_1_39
*839 FILLER_0_1_51
*840 FILLER_0_1_55
*841 FILLER_0_1_57
*842 FILLER_0_1_69
*843 FILLER_0_1_81
*844 FILLER_0_1_93
*845 FILLER_0_20_108
*846 FILLER_0_20_120
*847 FILLER_0_20_132
*848 FILLER_0_20_144
*849 FILLER_0_20_15
*850 FILLER_0_20_192
*851 FILLER_0_20_197
*852 FILLER_0_20_227
*853 FILLER_0_20_244
*854 FILLER_0_20_249
*855 FILLER_0_20_253
*856 FILLER_0_20_261
*857 FILLER_0_20_267
*858 FILLER_0_20_27
*859 FILLER_0_20_284
*860 FILLER_0_20_29
*861 FILLER_0_20_295
*862 FILLER_0_20_3
*863 FILLER_0_20_307
*864 FILLER_0_20_309
*865 FILLER_0_20_321
*866 FILLER_0_20_333
*867 FILLER_0_20_41
*868 FILLER_0_20_53
*869 FILLER_0_20_65
*870 FILLER_0_20_77
*871 FILLER_0_20_83
*872 FILLER_0_20_85
*873 FILLER_0_20_96
*874 FILLER_0_21_107
*875 FILLER_0_21_111
*876 FILLER_0_21_113
*877 FILLER_0_21_125
*878 FILLER_0_21_148
*879 FILLER_0_21_15
*880 FILLER_0_21_160
*881 FILLER_0_21_169
*882 FILLER_0_21_183
*883 FILLER_0_21_191
*884 FILLER_0_21_214
*885 FILLER_0_21_244
*886 FILLER_0_21_27
*887 FILLER_0_21_275
*888 FILLER_0_21_279
*889 FILLER_0_21_281
*890 FILLER_0_21_293
*891 FILLER_0_21_3
*892 FILLER_0_21_305
*893 FILLER_0_21_317
*894 FILLER_0_21_329
*895 FILLER_0_21_39
*896 FILLER_0_21_51
*897 FILLER_0_21_55
*898 FILLER_0_21_57
*899 FILLER_0_21_69
*900 FILLER_0_21_81
*901 FILLER_0_22_114
*902 FILLER_0_22_126
*903 FILLER_0_22_139
*904 FILLER_0_22_141
*905 FILLER_0_22_149
*906 FILLER_0_22_15
*907 FILLER_0_22_158
*908 FILLER_0_22_170
*909 FILLER_0_22_178
*910 FILLER_0_22_182
*911 FILLER_0_22_194
*912 FILLER_0_22_227
*913 FILLER_0_22_234
*914 FILLER_0_22_242
*915 FILLER_0_22_253
*916 FILLER_0_22_27
*917 FILLER_0_22_29
*918 FILLER_0_22_294
*919 FILLER_0_22_3
*920 FILLER_0_22_306
*921 FILLER_0_22_309
*922 FILLER_0_22_321
*923 FILLER_0_22_333
*924 FILLER_0_22_41
*925 FILLER_0_22_53
*926 FILLER_0_22_65
*927 FILLER_0_22_77
*928 FILLER_0_22_82
*929 FILLER_0_23_113
*930 FILLER_0_23_121
*931 FILLER_0_23_149
*932 FILLER_0_23_15
*933 FILLER_0_23_169
*934 FILLER_0_23_177
*935 FILLER_0_23_214
*936 FILLER_0_23_220
*937 FILLER_0_23_225
*938 FILLER_0_23_237
*939 FILLER_0_23_243
*940 FILLER_0_23_269
*941 FILLER_0_23_27
*942 FILLER_0_23_277
*943 FILLER_0_23_281
*944 FILLER_0_23_293
*945 FILLER_0_23_3
*946 FILLER_0_23_305
*947 FILLER_0_23_317
*948 FILLER_0_23_329
*949 FILLER_0_23_39
*950 FILLER_0_23_51
*951 FILLER_0_23_55
*952 FILLER_0_23_57
*953 FILLER_0_24_111
*954 FILLER_0_24_123
*955 FILLER_0_24_149
*956 FILLER_0_24_15
*957 FILLER_0_24_161
*958 FILLER_0_24_212
*959 FILLER_0_24_235
*960 FILLER_0_24_250
*961 FILLER_0_24_253
*962 FILLER_0_24_265
*963 FILLER_0_24_269
*964 FILLER_0_24_27
*965 FILLER_0_24_279
*966 FILLER_0_24_29
*967 FILLER_0_24_291
*968 FILLER_0_24_3
*969 FILLER_0_24_303
*970 FILLER_0_24_307
*971 FILLER_0_24_309
*972 FILLER_0_24_321
*973 FILLER_0_24_333
*974 FILLER_0_24_41
*975 FILLER_0_24_53
*976 FILLER_0_24_65
*977 FILLER_0_24_77
*978 FILLER_0_24_83
*979 FILLER_0_24_85
*980 FILLER_0_25_107
*981 FILLER_0_25_111
*982 FILLER_0_25_113
*983 FILLER_0_25_15
*984 FILLER_0_25_152
*985 FILLER_0_25_164
*986 FILLER_0_25_189
*987 FILLER_0_25_193
*988 FILLER_0_25_228
*989 FILLER_0_25_27
*990 FILLER_0_25_274
*991 FILLER_0_25_281
*992 FILLER_0_25_293
*993 FILLER_0_25_3
*994 FILLER_0_25_305
*995 FILLER_0_25_317
*996 FILLER_0_25_329
*997 FILLER_0_25_39
*998 FILLER_0_25_51
*999 FILLER_0_25_55
*1000 FILLER_0_25_57
*1001 FILLER_0_25_69
*1002 FILLER_0_25_81
*1003 FILLER_0_25_93
*1004 FILLER_0_26_113
*1005 FILLER_0_26_119
*1006 FILLER_0_26_147
*1007 FILLER_0_26_15
*1008 FILLER_0_26_153
*1009 FILLER_0_26_157
*1010 FILLER_0_26_169
*1011 FILLER_0_26_181
*1012 FILLER_0_26_205
*1013 FILLER_0_26_216
*1014 FILLER_0_26_262
*1015 FILLER_0_26_27
*1016 FILLER_0_26_29
*1017 FILLER_0_26_294
*1018 FILLER_0_26_3
*1019 FILLER_0_26_306
*1020 FILLER_0_26_309
*1021 FILLER_0_26_321
*1022 FILLER_0_26_333
*1023 FILLER_0_26_41
*1024 FILLER_0_26_53
*1025 FILLER_0_26_61
*1026 FILLER_0_27_100
*1027 FILLER_0_27_109
*1028 FILLER_0_27_133
*1029 FILLER_0_27_145
*1030 FILLER_0_27_15
*1031 FILLER_0_27_167
*1032 FILLER_0_27_169
*1033 FILLER_0_27_181
*1034 FILLER_0_27_193
*1035 FILLER_0_27_215
*1036 FILLER_0_27_223
*1037 FILLER_0_27_225
*1038 FILLER_0_27_233
*1039 FILLER_0_27_256
*1040 FILLER_0_27_269
*1041 FILLER_0_27_27
*1042 FILLER_0_27_277
*1043 FILLER_0_27_289
*1044 FILLER_0_27_3
*1045 FILLER_0_27_301
*1046 FILLER_0_27_313
*1047 FILLER_0_27_325
*1048 FILLER_0_27_333
*1049 FILLER_0_27_39
*1050 FILLER_0_27_51
*1051 FILLER_0_27_55
*1052 FILLER_0_27_57
*1053 FILLER_0_27_83
*1054 FILLER_0_28_105
*1055 FILLER_0_28_117
*1056 FILLER_0_28_129
*1057 FILLER_0_28_137
*1058 FILLER_0_28_144
*1059 FILLER_0_28_15
*1060 FILLER_0_28_190
*1061 FILLER_0_28_217
*1062 FILLER_0_28_229
*1063 FILLER_0_28_258
*1064 FILLER_0_28_27
*1065 FILLER_0_28_270
*1066 FILLER_0_28_29
*1067 FILLER_0_28_295
*1068 FILLER_0_28_3
*1069 FILLER_0_28_307
*1070 FILLER_0_28_309
*1071 FILLER_0_28_321
*1072 FILLER_0_28_333
*1073 FILLER_0_28_41
*1074 FILLER_0_28_53
*1075 FILLER_0_28_65
*1076 FILLER_0_28_73
*1077 FILLER_0_29_107
*1078 FILLER_0_29_111
*1079 FILLER_0_29_113
*1080 FILLER_0_29_125
*1081 FILLER_0_29_15
*1082 FILLER_0_29_174
*1083 FILLER_0_29_181
*1084 FILLER_0_29_189
*1085 FILLER_0_29_197
*1086 FILLER_0_29_216
*1087 FILLER_0_29_225
*1088 FILLER_0_29_237
*1089 FILLER_0_29_241
*1090 FILLER_0_29_252
*1091 FILLER_0_29_264
*1092 FILLER_0_29_27
*1093 FILLER_0_29_276
*1094 FILLER_0_29_288
*1095 FILLER_0_29_294
*1096 FILLER_0_29_3
*1097 FILLER_0_29_306
*1098 FILLER_0_29_327
*1099 FILLER_0_29_39
*1100 FILLER_0_29_51
*1101 FILLER_0_29_55
*1102 FILLER_0_29_57
*1103 FILLER_0_29_65
*1104 FILLER_0_29_95
*1105 FILLER_0_2_109
*1106 FILLER_0_2_121
*1107 FILLER_0_2_133
*1108 FILLER_0_2_139
*1109 FILLER_0_2_141
*1110 FILLER_0_2_15
*1111 FILLER_0_2_153
*1112 FILLER_0_2_165
*1113 FILLER_0_2_177
*1114 FILLER_0_2_189
*1115 FILLER_0_2_195
*1116 FILLER_0_2_197
*1117 FILLER_0_2_209
*1118 FILLER_0_2_221
*1119 FILLER_0_2_233
*1120 FILLER_0_2_245
*1121 FILLER_0_2_251
*1122 FILLER_0_2_253
*1123 FILLER_0_2_265
*1124 FILLER_0_2_27
*1125 FILLER_0_2_277
*1126 FILLER_0_2_289
*1127 FILLER_0_2_29
*1128 FILLER_0_2_3
*1129 FILLER_0_2_301
*1130 FILLER_0_2_307
*1131 FILLER_0_2_309
*1132 FILLER_0_2_321
*1133 FILLER_0_2_333
*1134 FILLER_0_2_41
*1135 FILLER_0_2_53
*1136 FILLER_0_2_65
*1137 FILLER_0_2_77
*1138 FILLER_0_2_83
*1139 FILLER_0_2_85
*1140 FILLER_0_2_97
*1141 FILLER_0_30_100
*1142 FILLER_0_30_104
*1143 FILLER_0_30_135
*1144 FILLER_0_30_139
*1145 FILLER_0_30_141
*1146 FILLER_0_30_15
*1147 FILLER_0_30_153
*1148 FILLER_0_30_165
*1149 FILLER_0_30_177
*1150 FILLER_0_30_189
*1151 FILLER_0_30_195
*1152 FILLER_0_30_197
*1153 FILLER_0_30_220
*1154 FILLER_0_30_232
*1155 FILLER_0_30_247
*1156 FILLER_0_30_251
*1157 FILLER_0_30_253
*1158 FILLER_0_30_265
*1159 FILLER_0_30_27
*1160 FILLER_0_30_277
*1161 FILLER_0_30_281
*1162 FILLER_0_30_29
*1163 FILLER_0_30_290
*1164 FILLER_0_30_3
*1165 FILLER_0_30_304
*1166 FILLER_0_30_309
*1167 FILLER_0_30_334
*1168 FILLER_0_30_41
*1169 FILLER_0_30_53
*1170 FILLER_0_30_65
*1171 FILLER_0_30_74
*1172 FILLER_0_31_105
*1173 FILLER_0_31_119
*1174 FILLER_0_31_131
*1175 FILLER_0_31_148
*1176 FILLER_0_31_15
*1177 FILLER_0_31_160
*1178 FILLER_0_31_177
*1179 FILLER_0_31_189
*1180 FILLER_0_31_222
*1181 FILLER_0_31_228
*1182 FILLER_0_31_236
*1183 FILLER_0_31_257
*1184 FILLER_0_31_265
*1185 FILLER_0_31_27
*1186 FILLER_0_31_286
*1187 FILLER_0_31_3
*1188 FILLER_0_31_307
*1189 FILLER_0_31_332
*1190 FILLER_0_31_39
*1191 FILLER_0_31_51
*1192 FILLER_0_31_55
*1193 FILLER_0_31_57
*1194 FILLER_0_31_63
*1195 FILLER_0_31_84
*1196 FILLER_0_32_120
*1197 FILLER_0_32_139
*1198 FILLER_0_32_15
*1199 FILLER_0_32_154
*1200 FILLER_0_32_192
*1201 FILLER_0_32_197
*1202 FILLER_0_32_203
*1203 FILLER_0_32_229
*1204 FILLER_0_32_237
*1205 FILLER_0_32_250
*1206 FILLER_0_32_253
*1207 FILLER_0_32_262
*1208 FILLER_0_32_266
*1209 FILLER_0_32_27
*1210 FILLER_0_32_278
*1211 FILLER_0_32_288
*1212 FILLER_0_32_29
*1213 FILLER_0_32_299
*1214 FILLER_0_32_3
*1215 FILLER_0_32_305
*1216 FILLER_0_32_318
*1217 FILLER_0_32_330
*1218 FILLER_0_32_334
*1219 FILLER_0_32_41
*1220 FILLER_0_32_53
*1221 FILLER_0_32_65
*1222 FILLER_0_32_77
*1223 FILLER_0_33_105
*1224 FILLER_0_33_111
*1225 FILLER_0_33_122
*1226 FILLER_0_33_133
*1227 FILLER_0_33_144
*1228 FILLER_0_33_15
*1229 FILLER_0_33_178
*1230 FILLER_0_33_190
*1231 FILLER_0_33_202
*1232 FILLER_0_33_214
*1233 FILLER_0_33_222
*1234 FILLER_0_33_232
*1235 FILLER_0_33_244
*1236 FILLER_0_33_263
*1237 FILLER_0_33_27
*1238 FILLER_0_33_275
*1239 FILLER_0_33_279
*1240 FILLER_0_33_286
*1241 FILLER_0_33_298
*1242 FILLER_0_33_3
*1243 FILLER_0_33_303
*1244 FILLER_0_33_315
*1245 FILLER_0_33_327
*1246 FILLER_0_33_39
*1247 FILLER_0_33_51
*1248 FILLER_0_33_55
*1249 FILLER_0_33_57
*1250 FILLER_0_33_69
*1251 FILLER_0_33_81
*1252 FILLER_0_33_93
*1253 FILLER_0_34_112
*1254 FILLER_0_34_118
*1255 FILLER_0_34_122
*1256 FILLER_0_34_127
*1257 FILLER_0_34_132
*1258 FILLER_0_34_148
*1259 FILLER_0_34_15
*1260 FILLER_0_34_153
*1261 FILLER_0_34_183
*1262 FILLER_0_34_195
*1263 FILLER_0_34_197
*1264 FILLER_0_34_209
*1265 FILLER_0_34_221
*1266 FILLER_0_34_229
*1267 FILLER_0_34_241
*1268 FILLER_0_34_249
*1269 FILLER_0_34_266
*1270 FILLER_0_34_27
*1271 FILLER_0_34_278
*1272 FILLER_0_34_29
*1273 FILLER_0_34_290
*1274 FILLER_0_34_3
*1275 FILLER_0_34_303
*1276 FILLER_0_34_307
*1277 FILLER_0_34_309
*1278 FILLER_0_34_333
*1279 FILLER_0_34_41
*1280 FILLER_0_34_53
*1281 FILLER_0_34_65
*1282 FILLER_0_34_77
*1283 FILLER_0_34_83
*1284 FILLER_0_34_85
*1285 FILLER_0_34_97
*1286 FILLER_0_35_105
*1287 FILLER_0_35_111
*1288 FILLER_0_35_113
*1289 FILLER_0_35_125
*1290 FILLER_0_35_137
*1291 FILLER_0_35_15
*1292 FILLER_0_35_177
*1293 FILLER_0_35_233
*1294 FILLER_0_35_241
*1295 FILLER_0_35_247
*1296 FILLER_0_35_252
*1297 FILLER_0_35_27
*1298 FILLER_0_35_272
*1299 FILLER_0_35_277
*1300 FILLER_0_35_281
*1301 FILLER_0_35_3
*1302 FILLER_0_35_302
*1303 FILLER_0_35_318
*1304 FILLER_0_35_326
*1305 FILLER_0_35_39
*1306 FILLER_0_35_51
*1307 FILLER_0_35_55
*1308 FILLER_0_35_57
*1309 FILLER_0_35_69
*1310 FILLER_0_35_81
*1311 FILLER_0_35_93
*1312 FILLER_0_36_109
*1313 FILLER_0_36_121
*1314 FILLER_0_36_133
*1315 FILLER_0_36_141
*1316 FILLER_0_36_15
*1317 FILLER_0_36_173
*1318 FILLER_0_36_205
*1319 FILLER_0_36_229
*1320 FILLER_0_36_237
*1321 FILLER_0_36_243
*1322 FILLER_0_36_247
*1323 FILLER_0_36_251
*1324 FILLER_0_36_259
*1325 FILLER_0_36_27
*1326 FILLER_0_36_282
*1327 FILLER_0_36_29
*1328 FILLER_0_36_3
*1329 FILLER_0_36_330
*1330 FILLER_0_36_334
*1331 FILLER_0_36_41
*1332 FILLER_0_36_53
*1333 FILLER_0_36_65
*1334 FILLER_0_36_77
*1335 FILLER_0_36_83
*1336 FILLER_0_36_85
*1337 FILLER_0_36_97
*1338 FILLER_0_37_105
*1339 FILLER_0_37_111
*1340 FILLER_0_37_113
*1341 FILLER_0_37_125
*1342 FILLER_0_37_137
*1343 FILLER_0_37_15
*1344 FILLER_0_37_164
*1345 FILLER_0_37_179
*1346 FILLER_0_37_211
*1347 FILLER_0_37_223
*1348 FILLER_0_37_258
*1349 FILLER_0_37_27
*1350 FILLER_0_37_281
*1351 FILLER_0_37_289
*1352 FILLER_0_37_3
*1353 FILLER_0_37_317
*1354 FILLER_0_37_329
*1355 FILLER_0_37_39
*1356 FILLER_0_37_51
*1357 FILLER_0_37_55
*1358 FILLER_0_37_57
*1359 FILLER_0_37_69
*1360 FILLER_0_37_81
*1361 FILLER_0_37_93
*1362 FILLER_0_38_10
*1363 FILLER_0_38_109
*1364 FILLER_0_38_113
*1365 FILLER_0_38_125
*1366 FILLER_0_38_134
*1367 FILLER_0_38_14
*1368 FILLER_0_38_164
*1369 FILLER_0_38_175
*1370 FILLER_0_38_18
*1371 FILLER_0_38_187
*1372 FILLER_0_38_209
*1373 FILLER_0_38_22
*1374 FILLER_0_38_221
*1375 FILLER_0_38_225
*1376 FILLER_0_38_229
*1377 FILLER_0_38_235
*1378 FILLER_0_38_247
*1379 FILLER_0_38_251
*1380 FILLER_0_38_253
*1381 FILLER_0_38_262
*1382 FILLER_0_38_278
*1383 FILLER_0_38_287
*1384 FILLER_0_38_294
*1385 FILLER_0_38_298
*1386 FILLER_0_38_302
*1387 FILLER_0_38_312
*1388 FILLER_0_38_318
*1389 FILLER_0_38_32
*1390 FILLER_0_38_322
*1391 FILLER_0_38_326
*1392 FILLER_0_38_334
*1393 FILLER_0_38_38
*1394 FILLER_0_38_42
*1395 FILLER_0_38_46
*1396 FILLER_0_38_50
*1397 FILLER_0_38_54
*1398 FILLER_0_38_57
*1399 FILLER_0_38_6
*1400 FILLER_0_38_62
*1401 FILLER_0_38_66
*1402 FILLER_0_38_70
*1403 FILLER_0_38_74
*1404 FILLER_0_38_78
*1405 FILLER_0_38_85
*1406 FILLER_0_38_97
*1407 FILLER_0_3_105
*1408 FILLER_0_3_111
*1409 FILLER_0_3_113
*1410 FILLER_0_3_125
*1411 FILLER_0_3_137
*1412 FILLER_0_3_149
*1413 FILLER_0_3_15
*1414 FILLER_0_3_161
*1415 FILLER_0_3_167
*1416 FILLER_0_3_169
*1417 FILLER_0_3_181
*1418 FILLER_0_3_193
*1419 FILLER_0_3_205
*1420 FILLER_0_3_217
*1421 FILLER_0_3_223
*1422 FILLER_0_3_225
*1423 FILLER_0_3_237
*1424 FILLER_0_3_249
*1425 FILLER_0_3_261
*1426 FILLER_0_3_27
*1427 FILLER_0_3_273
*1428 FILLER_0_3_279
*1429 FILLER_0_3_281
*1430 FILLER_0_3_293
*1431 FILLER_0_3_3
*1432 FILLER_0_3_305
*1433 FILLER_0_3_317
*1434 FILLER_0_3_329
*1435 FILLER_0_3_39
*1436 FILLER_0_3_51
*1437 FILLER_0_3_55
*1438 FILLER_0_3_57
*1439 FILLER_0_3_69
*1440 FILLER_0_3_81
*1441 FILLER_0_3_93
*1442 FILLER_0_4_109
*1443 FILLER_0_4_121
*1444 FILLER_0_4_133
*1445 FILLER_0_4_139
*1446 FILLER_0_4_141
*1447 FILLER_0_4_15
*1448 FILLER_0_4_153
*1449 FILLER_0_4_165
*1450 FILLER_0_4_177
*1451 FILLER_0_4_189
*1452 FILLER_0_4_195
*1453 FILLER_0_4_197
*1454 FILLER_0_4_209
*1455 FILLER_0_4_221
*1456 FILLER_0_4_233
*1457 FILLER_0_4_245
*1458 FILLER_0_4_251
*1459 FILLER_0_4_253
*1460 FILLER_0_4_265
*1461 FILLER_0_4_27
*1462 FILLER_0_4_277
*1463 FILLER_0_4_289
*1464 FILLER_0_4_29
*1465 FILLER_0_4_3
*1466 FILLER_0_4_301
*1467 FILLER_0_4_307
*1468 FILLER_0_4_309
*1469 FILLER_0_4_321
*1470 FILLER_0_4_333
*1471 FILLER_0_4_41
*1472 FILLER_0_4_53
*1473 FILLER_0_4_65
*1474 FILLER_0_4_77
*1475 FILLER_0_4_83
*1476 FILLER_0_4_85
*1477 FILLER_0_4_97
*1478 FILLER_0_5_105
*1479 FILLER_0_5_111
*1480 FILLER_0_5_113
*1481 FILLER_0_5_125
*1482 FILLER_0_5_137
*1483 FILLER_0_5_149
*1484 FILLER_0_5_15
*1485 FILLER_0_5_161
*1486 FILLER_0_5_167
*1487 FILLER_0_5_169
*1488 FILLER_0_5_181
*1489 FILLER_0_5_193
*1490 FILLER_0_5_205
*1491 FILLER_0_5_217
*1492 FILLER_0_5_223
*1493 FILLER_0_5_225
*1494 FILLER_0_5_237
*1495 FILLER_0_5_249
*1496 FILLER_0_5_261
*1497 FILLER_0_5_27
*1498 FILLER_0_5_273
*1499 FILLER_0_5_279
*1500 FILLER_0_5_281
*1501 FILLER_0_5_293
*1502 FILLER_0_5_3
*1503 FILLER_0_5_305
*1504 FILLER_0_5_317
*1505 FILLER_0_5_329
*1506 FILLER_0_5_39
*1507 FILLER_0_5_51
*1508 FILLER_0_5_55
*1509 FILLER_0_5_57
*1510 FILLER_0_5_69
*1511 FILLER_0_5_81
*1512 FILLER_0_5_93
*1513 FILLER_0_6_109
*1514 FILLER_0_6_121
*1515 FILLER_0_6_133
*1516 FILLER_0_6_139
*1517 FILLER_0_6_141
*1518 FILLER_0_6_15
*1519 FILLER_0_6_153
*1520 FILLER_0_6_165
*1521 FILLER_0_6_177
*1522 FILLER_0_6_189
*1523 FILLER_0_6_195
*1524 FILLER_0_6_197
*1525 FILLER_0_6_209
*1526 FILLER_0_6_221
*1527 FILLER_0_6_233
*1528 FILLER_0_6_245
*1529 FILLER_0_6_251
*1530 FILLER_0_6_253
*1531 FILLER_0_6_265
*1532 FILLER_0_6_27
*1533 FILLER_0_6_277
*1534 FILLER_0_6_289
*1535 FILLER_0_6_29
*1536 FILLER_0_6_3
*1537 FILLER_0_6_301
*1538 FILLER_0_6_307
*1539 FILLER_0_6_309
*1540 FILLER_0_6_321
*1541 FILLER_0_6_333
*1542 FILLER_0_6_41
*1543 FILLER_0_6_53
*1544 FILLER_0_6_65
*1545 FILLER_0_6_77
*1546 FILLER_0_6_83
*1547 FILLER_0_6_85
*1548 FILLER_0_6_97
*1549 FILLER_0_7_105
*1550 FILLER_0_7_111
*1551 FILLER_0_7_113
*1552 FILLER_0_7_125
*1553 FILLER_0_7_137
*1554 FILLER_0_7_149
*1555 FILLER_0_7_15
*1556 FILLER_0_7_161
*1557 FILLER_0_7_167
*1558 FILLER_0_7_169
*1559 FILLER_0_7_181
*1560 FILLER_0_7_193
*1561 FILLER_0_7_205
*1562 FILLER_0_7_217
*1563 FILLER_0_7_223
*1564 FILLER_0_7_225
*1565 FILLER_0_7_237
*1566 FILLER_0_7_249
*1567 FILLER_0_7_261
*1568 FILLER_0_7_27
*1569 FILLER_0_7_273
*1570 FILLER_0_7_279
*1571 FILLER_0_7_281
*1572 FILLER_0_7_293
*1573 FILLER_0_7_3
*1574 FILLER_0_7_305
*1575 FILLER_0_7_317
*1576 FILLER_0_7_329
*1577 FILLER_0_7_39
*1578 FILLER_0_7_51
*1579 FILLER_0_7_55
*1580 FILLER_0_7_57
*1581 FILLER_0_7_69
*1582 FILLER_0_7_81
*1583 FILLER_0_7_93
*1584 FILLER_0_8_109
*1585 FILLER_0_8_121
*1586 FILLER_0_8_133
*1587 FILLER_0_8_139
*1588 FILLER_0_8_141