*SPEF "ieee 1481-1999"
*DESIGN "tt_um_thorkn_audiochip_v2"
*DATE "11:11:11 Fri 11 11, 1111"
*VENDOR "OpenRCX"
*PROGRAM "Parallel Extraction"
*VERSION "1.0"
*DESIGN_FLOW "NAME_SCOPE LOCAL" "PIN_CAP NONE"
*DIVIDER /
*DELIMITER :
*BUS_DELIMITER []
*T_UNIT 1 NS
*C_UNIT 1 PF
*R_UNIT 1 OHM
*L_UNIT 1 HENRY

*NAME_MAP
*3 clk
*4 ena
*5 rst_n
*6 ui_in[0]
*7 ui_in[1]
*8 ui_in[2]
*9 ui_in[3]
*10 ui_in[4]
*11 ui_in[5]
*12 ui_in[6]
*13 ui_in[7]
*14 uio_in[0]
*15 uio_in[1]
*16 uio_in[2]
*17 uio_in[3]
*18 uio_in[4]
*19 uio_in[5]
*20 uio_in[6]
*21 uio_in[7]
*22 net28
*23 net29
*24 net30
*25 net31
*26 net32
*27 net33
*28 net34
*29 net35
*30 net36
*31 net37
*32 net38
*33 net39
*34 net40
*35 net41
*36 net42
*37 net43
*38 uo_out[0]
*39 uo_out[1]
*40 net44
*41 net45
*42 net46
*43 net47
*44 net48
*45 net49
*46 _000_
*47 _001_
*48 _002_
*49 _003_
*50 _004_
*51 _005_
*52 _006_
*53 _007_
*54 _008_
*55 _009_
*56 _010_
*57 _011_
*58 _012_
*59 _013_
*60 _014_
*61 _015_
*62 _016_
*63 _017_
*64 _018_
*65 _019_
*66 _020_
*67 _021_
*68 _022_
*69 _023_
*70 _024_
*71 _025_
*72 _026_
*73 _027_
*74 _028_
*75 _029_
*76 _030_
*77 _031_
*78 _032_
*79 _033_
*80 _034_
*81 _035_
*82 _036_
*83 _037_
*84 _038_
*85 _039_
*86 _040_
*87 _041_
*88 _042_
*89 _043_
*90 _044_
*91 _045_
*92 _046_
*93 _047_
*94 _048_
*95 _049_
*96 _050_
*97 _051_
*98 _052_
*99 _053_
*100 _054_
*101 _055_
*102 _056_
*103 _057_
*104 _058_
*105 _059_
*106 _060_
*107 _061_
*108 _062_
*109 _063_
*110 _064_
*111 _065_
*112 _066_
*113 _067_
*114 _068_
*115 _069_
*116 _070_
*117 _071_
*118 _072_
*119 _073_
*120 _074_
*121 _075_
*122 _076_
*123 _077_
*124 _078_
*125 _079_
*126 _080_
*127 _081_
*128 _082_
*129 _083_
*130 _084_
*131 _085_
*132 _086_
*133 _087_
*134 _088_
*135 _089_
*136 _090_
*137 _091_
*138 _092_
*139 _093_
*140 _094_
*141 _095_
*142 _096_
*143 _097_
*144 _098_
*145 _099_
*146 _100_
*147 _101_
*148 _102_
*149 _103_
*150 _104_
*151 _105_
*152 _106_
*153 _107_
*154 _108_
*155 _109_
*156 _110_
*157 _111_
*158 _112_
*159 _113_
*160 _114_
*161 _115_
*162 _116_
*163 _117_
*164 _118_
*165 _119_
*166 _120_
*167 _121_
*168 _122_
*169 _123_
*170 _124_
*171 _125_
*172 _126_
*173 _127_
*174 _128_
*175 _129_
*176 _130_
*177 _131_
*178 _132_
*179 _133_
*180 _134_
*181 _135_
*182 _136_
*183 _137_
*184 _138_
*185 _139_
*186 _140_
*187 _141_
*188 _142_
*189 _143_
*190 _144_
*191 _145_
*192 _146_
*193 _147_
*194 _148_
*195 _149_
*196 _150_
*197 _151_
*198 _152_
*199 _153_
*200 _154_
*201 _155_
*202 _156_
*203 _157_
*204 _158_
*205 _159_
*206 _160_
*207 _161_
*208 _162_
*209 _163_
*210 _164_
*211 _165_
*212 _166_
*213 _167_
*214 _168_
*215 _169_
*216 _170_
*217 _171_
*218 _172_
*219 _173_
*220 _174_
*221 _175_
*222 _176_
*223 _177_
*224 _178_
*225 _179_
*226 _180_
*227 _181_
*228 _182_
*229 _183_
*230 _184_
*231 _185_
*232 _186_
*233 _187_
*234 _188_
*235 _189_
*236 _190_
*237 _191_
*238 _192_
*239 _193_
*240 _194_
*241 _195_
*242 _196_
*243 _197_
*244 _198_
*245 _199_
*246 _200_
*247 _201_
*248 _202_
*249 _203_
*250 _204_
*251 _205_
*252 _206_
*253 _207_
*254 _208_
*255 _209_
*256 _210_
*257 _211_
*258 _212_
*259 _213_
*260 _214_
*261 _215_
*262 _216_
*263 _217_
*264 _218_
*265 _219_
*266 _220_
*267 _221_
*268 _222_
*269 _223_
*270 _224_
*271 _225_
*272 _226_
*273 _227_
*274 _228_
*275 _229_
*276 _230_
*277 _231_
*278 _232_
*279 _233_
*280 _234_
*281 _235_
*282 _236_
*283 _237_
*284 _238_
*285 _239_
*286 _240_
*287 _241_
*288 _242_
*289 _243_
*290 _244_
*291 _245_
*292 _246_
*293 _247_
*294 _248_
*295 _249_
*296 _250_
*297 _251_
*298 _252_
*299 _253_
*300 _254_
*301 _255_
*302 _256_
*303 _257_
*304 _258_
*305 _259_
*306 _260_
*307 _261_
*308 _262_
*309 _263_
*310 _264_
*311 _265_
*312 _266_
*313 _267_
*314 _268_
*315 _269_
*316 _270_
*317 _271_
*318 _272_
*319 _273_
*320 _274_
*321 _275_
*322 _276_
*323 _277_
*324 _278_
*325 _279_
*326 _280_
*327 _281_
*328 _282_
*329 _283_
*330 _284_
*331 _285_
*332 _286_
*333 _287_
*334 _288_
*335 _289_
*336 _290_
*337 _291_
*338 _292_
*339 _293_
*340 _294_
*341 _295_
*342 _296_
*343 _297_
*344 _298_
*345 _299_
*346 _300_
*347 _301_
*348 _302_
*349 _303_
*350 _304_
*351 _305_
*352 _306_
*353 _307_
*354 _308_
*355 _309_
*356 _310_
*357 _311_
*358 _312_
*359 _313_
*360 _314_
*361 _315_
*362 _316_
*363 _317_
*364 _318_
*365 _319_
*366 _320_
*367 _321_
*368 _322_
*369 _323_
*370 _324_
*371 _325_
*372 _326_
*373 _327_
*374 _328_
*375 _329_
*376 _330_
*377 _331_
*378 _332_
*379 _333_
*380 _334_
*381 _335_
*382 _336_
*383 _337_
*384 _338_
*385 _339_
*386 _340_
*387 _341_
*388 _342_
*389 _343_
*390 _344_
*391 _345_
*392 _346_
*393 _347_
*394 _348_
*395 _349_
*396 _350_
*397 _351_
*398 _352_
*399 _353_
*400 _354_
*401 _355_
*402 _356_
*403 _357_
*404 _358_
*405 _359_
*406 _360_
*407 _361_
*408 _362_
*409 _363_
*410 _364_
*411 _365_
*412 _366_
*413 _367_
*414 _368_
*415 _369_
*416 _370_
*417 _371_
*418 _372_
*419 _373_
*420 _374_
*421 _375_
*422 _376_
*423 _377_
*424 _378_
*425 _379_
*426 _380_
*427 _381_
*428 _382_
*429 _383_
*430 _384_
*431 _385_
*432 clknet_0_clk
*433 clknet_3_0__leaf_clk
*434 clknet_3_1__leaf_clk
*435 clknet_3_2__leaf_clk
*436 clknet_3_3__leaf_clk
*437 clknet_3_4__leaf_clk
*438 clknet_3_5__leaf_clk
*439 clknet_3_6__leaf_clk
*440 clknet_3_7__leaf_clk
*441 net1
*442 net10
*443 net11
*444 net12
*445 net13
*446 net14
*447 net15
*448 net16
*449 net17
*450 net18
*451 net19
*452 net2
*453 net20
*454 net21
*455 net22
*456 net23
*457 net24
*458 net25
*459 net26
*460 net27
*461 net3
*462 net4
*463 net5
*464 net50
*465 net51
*466 net52
*467 net53
*468 net54
*469 net55
*470 net56
*471 net57
*472 net58
*473 net59
*474 net6
*475 net60
*476 net61
*477 net62
*478 net63
*479 net64
*480 net65
*481 net66
*482 net67
*483 net68
*484 net69
*485 net7
*486 net70
*487 net71
*488 net72
*489 net73
*490 net74
*491 net75
*492 net76
*493 net77
*494 net78
*495 net79
*496 net8
*497 net80
*498 net81
*499 net82
*500 net83
*501 net84
*502 net85
*503 net86
*504 net87
*505 net88
*506 net89
*507 net9
*508 net90
*509 net91
*510 net92
*511 net93
*512 net94
*513 net95
*514 pwm_audio\.fsm_adsr_counter\[0\]
*515 pwm_audio\.fsm_adsr_counter\[10\]
*516 pwm_audio\.fsm_adsr_counter\[11\]
*517 pwm_audio\.fsm_adsr_counter\[12\]
*518 pwm_audio\.fsm_adsr_counter\[13\]
*519 pwm_audio\.fsm_adsr_counter\[14\]
*520 pwm_audio\.fsm_adsr_counter\[15\]
*521 pwm_audio\.fsm_adsr_counter\[16\]
*522 pwm_audio\.fsm_adsr_counter\[17\]
*523 pwm_audio\.fsm_adsr_counter\[18\]
*524 pwm_audio\.fsm_adsr_counter\[19\]
*525 pwm_audio\.fsm_adsr_counter\[1\]
*526 pwm_audio\.fsm_adsr_counter\[20\]
*527 pwm_audio\.fsm_adsr_counter\[21\]
*528 pwm_audio\.fsm_adsr_counter\[22\]
*529 pwm_audio\.fsm_adsr_counter\[23\]
*530 pwm_audio\.fsm_adsr_counter\[2\]
*531 pwm_audio\.fsm_adsr_counter\[3\]
*532 pwm_audio\.fsm_adsr_counter\[4\]
*533 pwm_audio\.fsm_adsr_counter\[5\]
*534 pwm_audio\.fsm_adsr_counter\[6\]
*535 pwm_audio\.fsm_adsr_counter\[7\]
*536 pwm_audio\.fsm_adsr_counter\[8\]
*537 pwm_audio\.fsm_adsr_counter\[9\]
*538 pwm_audio\.fsm_adsr_level_adsr\[0\]
*539 pwm_audio\.fsm_adsr_level_adsr\[1\]
*540 pwm_audio\.fsm_adsr_level_adsr\[2\]
*541 pwm_audio\.fsm_adsr_level_adsr\[3\]
*542 pwm_audio\.fsm_adsr_level_adsr\[4\]
*543 pwm_audio\.fsm_adsr_level_adsr\[5\]
*544 pwm_audio\.fsm_adsr_level_adsr\[6\]
*545 pwm_audio\.fsm_adsr_level_adsr\[7\]
*546 pwm_audio\.fsm_adsr_stateNext\[0\]
*547 pwm_audio\.fsm_adsr_stateNext\[1\]
*548 pwm_audio\.fsm_adsr_stateNext\[2\]
*549 pwm_audio\.fsm_adsr_stateReg\[0\]
*550 pwm_audio\.fsm_adsr_stateReg\[1\]
*551 pwm_audio\.fsm_adsr_stateReg\[2\]
*552 pwm_audio\.io_pwm_1
*553 pwm_audio\.io_pwm_2
*554 pwm_audio\.pwm_ctrl\.freq_counter_valueNext\[0\]
*555 pwm_audio\.pwm_ctrl\.freq_counter_valueNext\[10\]
*556 pwm_audio\.pwm_ctrl\.freq_counter_valueNext\[11\]
*557 pwm_audio\.pwm_ctrl\.freq_counter_valueNext\[1\]
*558 pwm_audio\.pwm_ctrl\.freq_counter_valueNext\[2\]
*559 pwm_audio\.pwm_ctrl\.freq_counter_valueNext\[3\]
*560 pwm_audio\.pwm_ctrl\.freq_counter_valueNext\[4\]
*561 pwm_audio\.pwm_ctrl\.freq_counter_valueNext\[5\]
*562 pwm_audio\.pwm_ctrl\.freq_counter_valueNext\[6\]
*563 pwm_audio\.pwm_ctrl\.freq_counter_valueNext\[7\]
*564 pwm_audio\.pwm_ctrl\.freq_counter_valueNext\[8\]
*565 pwm_audio\.pwm_ctrl\.freq_counter_valueNext\[9\]
*566 pwm_audio\.pwm_ctrl\.freq_counter_value\[0\]
*567 pwm_audio\.pwm_ctrl\.freq_counter_value\[10\]
*568 pwm_audio\.pwm_ctrl\.freq_counter_value\[11\]
*569 pwm_audio\.pwm_ctrl\.freq_counter_value\[1\]
*570 pwm_audio\.pwm_ctrl\.freq_counter_value\[2\]
*571 pwm_audio\.pwm_ctrl\.freq_counter_value\[3\]
*572 pwm_audio\.pwm_ctrl\.freq_counter_value\[4\]
*573 pwm_audio\.pwm_ctrl\.freq_counter_value\[5\]
*574 pwm_audio\.pwm_ctrl\.freq_counter_value\[6\]
*575 pwm_audio\.pwm_ctrl\.freq_counter_value\[7\]
*576 pwm_audio\.pwm_ctrl\.freq_counter_value\[8\]
*577 pwm_audio\.pwm_ctrl\.freq_counter_value\[9\]
*578 pwm_audio\.pwm_ctrl\.pwm_steps_counter_valueNext\[0\]
*579 pwm_audio\.pwm_ctrl\.pwm_steps_counter_valueNext\[1\]
*580 pwm_audio\.pwm_ctrl\.pwm_steps_counter_valueNext\[2\]
*581 pwm_audio\.pwm_ctrl\.pwm_steps_counter_valueNext\[3\]
*582 pwm_audio\.pwm_ctrl\.pwm_steps_counter_valueNext\[4\]
*583 pwm_audio\.pwm_ctrl\.pwm_steps_counter_valueNext\[5\]
*584 pwm_audio\.pwm_ctrl\.pwm_steps_counter_valueNext\[6\]
*585 pwm_audio\.pwm_ctrl\.pwm_steps_counter_valueNext\[7\]
*586 pwm_audio\.pwm_ctrl\.pwm_steps_counter_value\[0\]
*587 pwm_audio\.pwm_ctrl\.pwm_steps_counter_value\[1\]
*588 pwm_audio\.pwm_ctrl\.pwm_steps_counter_value\[2\]
*589 pwm_audio\.pwm_ctrl\.pwm_steps_counter_value\[3\]
*590 pwm_audio\.pwm_ctrl\.pwm_steps_counter_value\[4\]
*591 pwm_audio\.pwm_ctrl\.pwm_steps_counter_value\[5\]
*592 pwm_audio\.pwm_ctrl\.pwm_steps_counter_value\[6\]
*593 pwm_audio\.pwm_ctrl\.pwm_steps_counter_value\[7\]
*594 pwm_audio\.pwm_ctrl\.pwmdriver_1_1\.counter_valueNext\[0\]
*595 pwm_audio\.pwm_ctrl\.pwmdriver_1_1\.counter_valueNext\[1\]
*596 pwm_audio\.pwm_ctrl\.pwmdriver_1_1\.counter_valueNext\[2\]
*597 pwm_audio\.pwm_ctrl\.pwmdriver_1_1\.counter_valueNext\[3\]
*598 pwm_audio\.pwm_ctrl\.pwmdriver_1_1\.counter_valueNext\[4\]
*599 pwm_audio\.pwm_ctrl\.pwmdriver_1_1\.counter_valueNext\[5\]
*600 pwm_audio\.pwm_ctrl\.pwmdriver_1_1\.counter_valueNext\[6\]
*601 pwm_audio\.pwm_ctrl\.pwmdriver_1_1\.counter_valueNext\[7\]
*602 pwm_audio\.pwm_ctrl\.pwmdriver_1_1\.counter_value\[0\]
*603 pwm_audio\.pwm_ctrl\.pwmdriver_1_1\.counter_value\[1\]
*604 pwm_audio\.pwm_ctrl\.pwmdriver_1_1\.counter_value\[2\]
*605 pwm_audio\.pwm_ctrl\.pwmdriver_1_1\.counter_value\[3\]
*606 pwm_audio\.pwm_ctrl\.pwmdriver_1_1\.counter_value\[4\]
*607 pwm_audio\.pwm_ctrl\.pwmdriver_1_1\.counter_value\[5\]
*608 pwm_audio\.pwm_ctrl\.pwmdriver_1_1\.counter_value\[6\]
*609 pwm_audio\.pwm_ctrl\.pwmdriver_1_1\.counter_value\[7\]
*610 pwm_audio\.pwm_ctrl\.pwmdriver_2\.counter_valueNext\[0\]
*611 pwm_audio\.pwm_ctrl\.pwmdriver_2\.counter_valueNext\[1\]
*612 pwm_audio\.pwm_ctrl\.pwmdriver_2\.counter_valueNext\[2\]
*613 pwm_audio\.pwm_ctrl\.pwmdriver_2\.counter_valueNext\[3\]
*614 pwm_audio\.pwm_ctrl\.pwmdriver_2\.counter_valueNext\[4\]
*615 pwm_audio\.pwm_ctrl\.pwmdriver_2\.counter_valueNext\[5\]
*616 pwm_audio\.pwm_ctrl\.pwmdriver_2\.counter_valueNext\[6\]
*617 pwm_audio\.pwm_ctrl\.pwmdriver_2\.counter_valueNext\[7\]
*618 pwm_audio\.pwm_ctrl\.pwmdriver_2\.counter_value\[0\]
*619 pwm_audio\.pwm_ctrl\.pwmdriver_2\.counter_value\[1\]
*620 pwm_audio\.pwm_ctrl\.pwmdriver_2\.counter_value\[2\]
*621 pwm_audio\.pwm_ctrl\.pwmdriver_2\.counter_value\[3\]
*622 pwm_audio\.pwm_ctrl\.pwmdriver_2\.counter_value\[4\]
*623 pwm_audio\.pwm_ctrl\.pwmdriver_2\.counter_value\[5\]
*624 pwm_audio\.pwm_ctrl\.pwmdriver_2\.counter_value\[6\]
*625 pwm_audio\.pwm_ctrl\.pwmdriver_2\.counter_value\[7\]
*626 FILLER_0_0_109
*627 FILLER_0_0_113
*628 FILLER_0_0_125
*629 FILLER_0_0_137
*630 FILLER_0_0_141
*631 FILLER_0_0_15
*632 FILLER_0_0_153
*633 FILLER_0_0_165
*634 FILLER_0_0_169
*635 FILLER_0_0_181
*636 FILLER_0_0_193
*637 FILLER_0_0_197
*638 FILLER_0_0_209
*639 FILLER_0_0_221
*640 FILLER_0_0_225
*641 FILLER_0_0_237
*642 FILLER_0_0_249
*643 FILLER_0_0_253
*644 FILLER_0_0_265
*645 FILLER_0_0_27
*646 FILLER_0_0_277
*647 FILLER_0_0_281
*648 FILLER_0_0_29
*649 FILLER_0_0_293
*650 FILLER_0_0_3
*651 FILLER_0_0_305
*652 FILLER_0_0_309
*653 FILLER_0_0_321
*654 FILLER_0_0_333
*655 FILLER_0_0_41
*656 FILLER_0_0_53
*657 FILLER_0_0_57
*658 FILLER_0_0_69
*659 FILLER_0_0_81
*660 FILLER_0_0_85
*661 FILLER_0_0_97
*662 FILLER_0_10_109
*663 FILLER_0_10_121
*664 FILLER_0_10_133
*665 FILLER_0_10_139
*666 FILLER_0_10_141
*667 FILLER_0_10_15
*668 FILLER_0_10_153
*669 FILLER_0_10_165
*670 FILLER_0_10_177
*671 FILLER_0_10_189
*672 FILLER_0_10_195
*673 FILLER_0_10_197
*674 FILLER_0_10_209
*675 FILLER_0_10_221
*676 FILLER_0_10_233
*677 FILLER_0_10_245
*678 FILLER_0_10_251
*679 FILLER_0_10_253
*680 FILLER_0_10_265
*681 FILLER_0_10_27
*682 FILLER_0_10_277
*683 FILLER_0_10_289
*684 FILLER_0_10_29
*685 FILLER_0_10_3
*686 FILLER_0_10_301
*687 FILLER_0_10_307
*688 FILLER_0_10_309
*689 FILLER_0_10_321
*690 FILLER_0_10_333
*691 FILLER_0_10_41
*692 FILLER_0_10_53
*693 FILLER_0_10_65
*694 FILLER_0_10_77
*695 FILLER_0_10_83
*696 FILLER_0_10_85
*697 FILLER_0_10_97
*698 FILLER_0_11_105
*699 FILLER_0_11_111
*700 FILLER_0_11_113
*701 FILLER_0_11_125
*702 FILLER_0_11_137
*703 FILLER_0_11_149
*704 FILLER_0_11_15
*705 FILLER_0_11_161
*706 FILLER_0_11_167
*707 FILLER_0_11_169
*708 FILLER_0_11_181
*709 FILLER_0_11_193
*710 FILLER_0_11_205
*711 FILLER_0_11_217
*712 FILLER_0_11_223
*713 FILLER_0_11_225
*714 FILLER_0_11_237
*715 FILLER_0_11_249
*716 FILLER_0_11_261
*717 FILLER_0_11_27
*718 FILLER_0_11_273
*719 FILLER_0_11_279
*720 FILLER_0_11_281
*721 FILLER_0_11_293
*722 FILLER_0_11_3
*723 FILLER_0_11_305
*724 FILLER_0_11_317
*725 FILLER_0_11_329
*726 FILLER_0_11_39
*727 FILLER_0_11_51
*728 FILLER_0_11_55
*729 FILLER_0_11_57
*730 FILLER_0_11_69
*731 FILLER_0_11_81
*732 FILLER_0_11_93
*733 FILLER_0_12_109
*734 FILLER_0_12_121
*735 FILLER_0_12_133
*736 FILLER_0_12_139
*737 FILLER_0_12_141
*738 FILLER_0_12_15
*739 FILLER_0_12_153
*740 FILLER_0_12_165
*741 FILLER_0_12_177
*742 FILLER_0_12_189
*743 FILLER_0_12_195
*744 FILLER_0_12_197
*745 FILLER_0_12_209
*746 FILLER_0_12_221
*747 FILLER_0_12_233
*748 FILLER_0_12_245
*749 FILLER_0_12_251
*750 FILLER_0_12_253
*751 FILLER_0_12_265
*752 FILLER_0_12_27
*753 FILLER_0_12_277
*754 FILLER_0_12_289
*755 FILLER_0_12_29
*756 FILLER_0_12_3
*757 FILLER_0_12_301
*758 FILLER_0_12_307
*759 FILLER_0_12_309
*760 FILLER_0_12_321
*761 FILLER_0_12_333
*762 FILLER_0_12_41
*763 FILLER_0_12_53
*764 FILLER_0_12_65
*765 FILLER_0_12_77
*766 FILLER_0_12_83
*767 FILLER_0_12_85
*768 FILLER_0_12_97
*769 FILLER_0_13_105
*770 FILLER_0_13_111
*771 FILLER_0_13_113
*772 FILLER_0_13_125
*773 FILLER_0_13_137
*774 FILLER_0_13_149
*775 FILLER_0_13_15
*776 FILLER_0_13_161
*777 FILLER_0_13_167
*778 FILLER_0_13_169
*779 FILLER_0_13_181
*780 FILLER_0_13_193
*781 FILLER_0_13_205
*782 FILLER_0_13_217
*783 FILLER_0_13_223
*784 FILLER_0_13_225
*785 FILLER_0_13_237
*786 FILLER_0_13_249
*787 FILLER_0_13_261
*788 FILLER_0_13_27
*789 FILLER_0_13_273
*790 FILLER_0_13_279
*791 FILLER_0_13_281
*792 FILLER_0_13_293
*793 FILLER_0_13_3
*794 FILLER_0_13_305
*795 FILLER_0_13_317
*796 FILLER_0_13_329
*797 FILLER_0_13_39
*798 FILLER_0_13_51
*799 FILLER_0_13_55
*800 FILLER_0_13_57
*801 FILLER_0_13_69
*802 FILLER_0_13_81
*803 FILLER_0_13_93
*804 FILLER_0_14_109
*805 FILLER_0_14_121
*806 FILLER_0_14_133
*807 FILLER_0_14_139
*808 FILLER_0_14_141
*809 FILLER_0_14_15
*810 FILLER_0_14_153
*811 FILLER_0_14_165
*812 FILLER_0_14_177
*813 FILLER_0_14_189
*814 FILLER_0_14_195
*815 FILLER_0_14_197
*816 FILLER_0_14_209
*817 FILLER_0_14_221
*818 FILLER_0_14_233
*819 FILLER_0_14_245
*820 FILLER_0_14_251
*821 FILLER_0_14_253
*822 FILLER_0_14_265
*823 FILLER_0_14_27
*824 FILLER_0_14_277
*825 FILLER_0_14_289
*826 FILLER_0_14_29
*827 FILLER_0_14_3
*828 FILLER_0_14_301
*829 FILLER_0_14_307
*830 FILLER_0_14_309
*831 FILLER_0_14_321
*832 FILLER_0_14_333
*833 FILLER_0_14_41
*834 FILLER_0_14_53
*835 FILLER_0_14_65
*836 FILLER_0_14_77
*837 FILLER_0_14_83
*838 FILLER_0_14_85
*839 FILLER_0_14_97
*840 FILLER_0_15_105
*841 FILLER_0_15_111
*842 FILLER_0_15_113
*843 FILLER_0_15_125
*844 FILLER_0_15_137
*845 FILLER_0_15_149
*846 FILLER_0_15_15
*847 FILLER_0_15_161
*848 FILLER_0_15_167
*849 FILLER_0_15_169
*850 FILLER_0_15_181
*851 FILLER_0_15_193
*852 FILLER_0_15_205
*853 FILLER_0_15_217
*854 FILLER_0_15_223
*855 FILLER_0_15_225
*856 FILLER_0_15_237
*857 FILLER_0_15_249
*858 FILLER_0_15_261
*859 FILLER_0_15_27
*860 FILLER_0_15_273
*861 FILLER_0_15_279
*862 FILLER_0_15_281
*863 FILLER_0_15_293
*864 FILLER_0_15_3
*865 FILLER_0_15_305
*866 FILLER_0_15_317
*867 FILLER_0_15_329
*868 FILLER_0_15_39
*869 FILLER_0_15_51
*870 FILLER_0_15_55
*871 FILLER_0_15_57
*872 FILLER_0_15_69
*873 FILLER_0_15_81
*874 FILLER_0_15_93
*875 FILLER_0_16_109
*876 FILLER_0_16_121
*877 FILLER_0_16_133
*878 FILLER_0_16_139
*879 FILLER_0_16_141
*880 FILLER_0_16_15
*881 FILLER_0_16_153
*882 FILLER_0_16_165
*883 FILLER_0_16_177
*884 FILLER_0_16_189
*885 FILLER_0_16_195
*886 FILLER_0_16_197
*887 FILLER_0_16_209
*888 FILLER_0_16_221
*889 FILLER_0_16_233
*890 FILLER_0_16_245
*891 FILLER_0_16_251
*892 FILLER_0_16_253
*893 FILLER_0_16_265
*894 FILLER_0_16_27
*895 FILLER_0_16_277
*896 FILLER_0_16_289
*897 FILLER_0_16_29
*898 FILLER_0_16_3
*899 FILLER_0_16_301
*900 FILLER_0_16_307
*901 FILLER_0_16_309
*902 FILLER_0_16_321
*903 FILLER_0_16_333
*904 FILLER_0_16_41
*905 FILLER_0_16_53
*906 FILLER_0_16_65
*907 FILLER_0_16_77
*908 FILLER_0_16_83
*909 FILLER_0_16_85
*910 FILLER_0_16_97
*911 FILLER_0_17_105
*912 FILLER_0_17_111
*913 FILLER_0_17_113
*914 FILLER_0_17_125
*915 FILLER_0_17_137
*916 FILLER_0_17_149
*917 FILLER_0_17_15
*918 FILLER_0_17_161
*919 FILLER_0_17_167
*920 FILLER_0_17_169
*921 FILLER_0_17_181
*922 FILLER_0_17_193
*923 FILLER_0_17_205
*924 FILLER_0_17_217
*925 FILLER_0_17_223
*926 FILLER_0_17_225
*927 FILLER_0_17_237
*928 FILLER_0_17_249
*929 FILLER_0_17_261
*930 FILLER_0_17_27
*931 FILLER_0_17_273
*932 FILLER_0_17_279
*933 FILLER_0_17_281
*934 FILLER_0_17_293
*935 FILLER_0_17_3
*936 FILLER_0_17_305
*937 FILLER_0_17_317
*938 FILLER_0_17_329
*939 FILLER_0_17_39
*940 FILLER_0_17_51
*941 FILLER_0_17_55
*942 FILLER_0_17_57
*943 FILLER_0_17_69
*944 FILLER_0_17_81
*945 FILLER_0_17_93
*946 FILLER_0_18_109
*947 FILLER_0_18_121
*948 FILLER_0_18_133
*949 FILLER_0_18_139
*950 FILLER_0_18_141
*951 FILLER_0_18_15
*952 FILLER_0_18_153
*953 FILLER_0_18_165
*954 FILLER_0_18_177
*955 FILLER_0_18_189
*956 FILLER_0_18_195
*957 FILLER_0_18_197
*958 FILLER_0_18_209
*959 FILLER_0_18_221
*960 FILLER_0_18_233
*961 FILLER_0_18_245
*962 FILLER_0_18_251
*963 FILLER_0_18_253
*964 FILLER_0_18_265
*965 FILLER_0_18_27
*966 FILLER_0_18_277
*967 FILLER_0_18_289
*968 FILLER_0_18_29
*969 FILLER_0_18_3
*970 FILLER_0_18_301
*971 FILLER_0_18_307
*972 FILLER_0_18_309
*973 FILLER_0_18_321
*974 FILLER_0_18_333
*975 FILLER_0_18_41
*976 FILLER_0_18_53
*977 FILLER_0_18_65
*978 FILLER_0_18_77
*979 FILLER_0_18_83
*980 FILLER_0_18_85
*981 FILLER_0_18_97
*982 FILLER_0_19_105
*983 FILLER_0_19_111
*984 FILLER_0_19_113
*985 FILLER_0_19_125
*986 FILLER_0_19_137
*987 FILLER_0_19_149
*988 FILLER_0_19_15
*989 FILLER_0_19_161
*990 FILLER_0_19_167
*991 FILLER_0_19_169
*992 FILLER_0_19_181
*993 FILLER_0_19_193
*994 FILLER_0_19_205
*995 FILLER_0_19_217
*996 FILLER_0_19_223
*997 FILLER_0_19_225
*998 FILLER_0_19_237
*999 FILLER_0_19_249
*1000 FILLER_0_19_261
*1001 FILLER_0_19_27
*1002 FILLER_0_19_273
*1003 FILLER_0_19_279
*1004 FILLER_0_19_281
*1005 FILLER_0_19_293
*1006 FILLER_0_19_3
*1007 FILLER_0_19_305
*1008 FILLER_0_19_317
*1009 FILLER_0_19_329
*1010 FILLER_0_19_39
*1011 FILLER_0_19_51
*1012 FILLER_0_19_55
*1013 FILLER_0_19_57
*1014 FILLER_0_19_69
*1015 FILLER_0_19_81
*1016 FILLER_0_19_93
*1017 FILLER_0_1_105
*1018 FILLER_0_1_111
*1019 FILLER_0_1_113
*1020 FILLER_0_1_125
*1021 FILLER_0_1_137
*1022 FILLER_0_1_149
*1023 FILLER_0_1_15
*1024 FILLER_0_1_161
*1025 FILLER_0_1_167
*1026 FILLER_0_1_169
*1027 FILLER_0_1_181
*1028 FILLER_0_1_193
*1029 FILLER_0_1_205
*1030 FILLER_0_1_217
*1031 FILLER_0_1_223
*1032 FILLER_0_1_225
*1033 FILLER_0_1_237
*1034 FILLER_0_1_249
*1035 FILLER_0_1_261
*1036 FILLER_0_1_27
*1037 FILLER_0_1_273
*1038 FILLER_0_1_279
*1039 FILLER_0_1_281
*1040 FILLER_0_1_293
*1041 FILLER_0_1_3
*1042 FILLER_0_1_305
*1043 FILLER_0_1_317
*1044 FILLER_0_1_329
*1045 FILLER_0_1_39
*1046 FILLER_0_1_51
*1047 FILLER_0_1_55
*1048 FILLER_0_1_57
*1049 FILLER_0_1_69
*1050 FILLER_0_1_81
*1051 FILLER_0_1_93
*1052 FILLER_0_20_109
*1053 FILLER_0_20_121
*1054 FILLER_0_20_133
*1055 FILLER_0_20_139
*1056 FILLER_0_20_141
*1057 FILLER_0_20_15
*1058 FILLER_0_20_153
*1059 FILLER_0_20_165
*1060 FILLER_0_20_177
*1061 FILLER_0_20_189
*1062 FILLER_0_20_195
*1063 FILLER_0_20_197
*1064 FILLER_0_20_209
*1065 FILLER_0_20_221
*1066 FILLER_0_20_233
*1067 FILLER_0_20_245
*1068 FILLER_0_20_251
*1069 FILLER_0_20_253
*1070 FILLER_0_20_265
*1071 FILLER_0_20_27
*1072 FILLER_0_20_277
*1073 FILLER_0_20_289
*1074 FILLER_0_20_29
*1075 FILLER_0_20_3
*1076 FILLER_0_20_301
*1077 FILLER_0_20_307
*1078 FILLER_0_20_309
*1079 FILLER_0_20_321
*1080 FILLER_0_20_333
*1081 FILLER_0_20_41
*1082 FILLER_0_20_53
*1083 FILLER_0_20_65
*1084 FILLER_0_20_77
*1085 FILLER_0_20_83
*1086 FILLER_0_20_85
*1087 FILLER_0_20_97
*1088 FILLER_0_21_105
*1089 FILLER_0_21_111
*1090 FILLER_0_21_113
*1091 FILLER_0_21_125
*1092 FILLER_0_21_137
*1093 FILLER_0_21_149
*1094 FILLER_0_21_15
*1095 FILLER_0_21_161
*1096 FILLER_0_21_167
*1097 FILLER_0_21_169
*1098 FILLER_0_21_181
*1099 FILLER_0_21_193
*1100 FILLER_0_21_205
*1101 FILLER_0_21_217
*1102 FILLER_0_21_223
*1103 FILLER_0_21_225
*1104 FILLER_0_21_237
*1105 FILLER_0_21_249
*1106 FILLER_0_21_261
*1107 FILLER_0_21_27
*1108 FILLER_0_21_273
*1109 FILLER_0_21_279
*1110 FILLER_0_21_281
*1111 FILLER_0_21_293
*1112 FILLER_0_21_3
*1113 FILLER_0_21_305
*1114 FILLER_0_21_317
*1115 FILLER_0_21_329
*1116 FILLER_0_21_39
*1117 FILLER_0_21_51
*1118 FILLER_0_21_55
*1119 FILLER_0_21_57
*1120 FILLER_0_21_69
*1121 FILLER_0_21_81
*1122 FILLER_0_21_93
*1123 FILLER_0_22_109
*1124 FILLER_0_22_121
*1125 FILLER_0_22_133
*1126 FILLER_0_22_139
*1127 FILLER_0_22_141
*1128 FILLER_0_22_15
*1129 FILLER_0_22_153
*1130 FILLER_0_22_165
*1131 FILLER_0_22_177
*1132 FILLER_0_22_189
*1133 FILLER_0_22_195
*1134 FILLER_0_22_197
*1135 FILLER_0_22_209
*1136 FILLER_0_22_221
*1137 FILLER_0_22_233
*1138 FILLER_0_22_245
*1139 FILLER_0_22_251
*1140 FILLER_0_22_253
*1141 FILLER_0_22_265
*1142 FILLER_0_22_27
*1143 FILLER_0_22_277
*1144 FILLER_0_22_289
*1145 FILLER_0_22_29
*1146 FILLER_0_22_3
*1147 FILLER_0_22_301
*1148 FILLER_0_22_307
*1149 FILLER_0_22_309
*1150 FILLER_0_22_321
*1151 FILLER_0_22_333
*1152 FILLER_0_22_41
*1153 FILLER_0_22_53
*1154 FILLER_0_22_65
*1155 FILLER_0_22_77
*1156 FILLER_0_22_83
*1157 FILLER_0_22_85
*1158 FILLER_0_22_97
*1159 FILLER_0_23_105
*1160 FILLER_0_23_111
*1161 FILLER_0_23_113
*1162 FILLER_0_23_125
*1163 FILLER_0_23_137
*1164 FILLER_0_23_149
*1165 FILLER_0_23_15
*1166 FILLER_0_23_161
*1167 FILLER_0_23_167
*1168 FILLER_0_23_169
*1169 FILLER_0_23_181
*1170 FILLER_0_23_193
*1171 FILLER_0_23_205
*1172 FILLER_0_23_217
*1173 FILLER_0_23_223
*1174 FILLER_0_23_225
*1175 FILLER_0_23_237
*1176 FILLER_0_23_249
*1177 FILLER_0_23_261
*1178 FILLER_0_23_27
*1179 FILLER_0_23_273
*1180 FILLER_0_23_279
*1181 FILLER_0_23_281
*1182 FILLER_0_23_293
*1183 FILLER_0_23_3
*1184 FILLER_0_23_305
*1185 FILLER_0_23_317
*1186 FILLER_0_23_329
*1187 FILLER_0_23_39
*1188 FILLER_0_23_51
*1189 FILLER_0_23_55
*1190 FILLER_0_23_57
*1191 FILLER_0_23_69
*1192 FILLER_0_23_81
*1193 FILLER_0_23_93
*1194 FILLER_0_24_109
*1195 FILLER_0_24_121
*1196 FILLER_0_24_133
*1197 FILLER_0_24_139
*1198 FILLER_0_24_141
*1199 FILLER_0_24_15
*1200 FILLER_0_24_153
*1201 FILLER_0_24_165
*1202 FILLER_0_24_177
*1203 FILLER_0_24_189
*1204 FILLER_0_24_195
*1205 FILLER_0_24_197
*1206 FILLER_0_24_209
*1207 FILLER_0_24_221
*1208 FILLER_0_24_233
*1209 FILLER_0_24_245
*1210 FILLER_0_24_251
*1211 FILLER_0_24_253
*1212 FILLER_0_24_265
*1213 FILLER_0_24_27
*1214 FILLER_0_24_277
*1215 FILLER_0_24_289
*1216 FILLER_0_24_29
*1217 FILLER_0_24_3
*1218 FILLER_0_24_301
*1219 FILLER_0_24_307
*1220 FILLER_0_24_309
*1221 FILLER_0_24_321
*1222 FILLER_0_24_333
*1223 FILLER_0_24_41
*1224 FILLER_0_24_53
*1225 FILLER_0_24_65
*1226 FILLER_0_24_77
*1227 FILLER_0_24_83
*1228 FILLER_0_24_85
*1229 FILLER_0_24_97
*1230 FILLER_0_25_105
*1231 FILLER_0_25_111
*1232 FILLER_0_25_113
*1233 FILLER_0_25_125
*1234 FILLER_0_25_137
*1235 FILLER_0_25_149
*1236 FILLER_0_25_15
*1237 FILLER_0_25_161
*1238 FILLER_0_25_167
*1239 FILLER_0_25_169
*1240 FILLER_0_25_181
*1241 FILLER_0_25_193
*1242 FILLER_0_25_205
*1243 FILLER_0_25_217
*1244 FILLER_0_25_223
*1245 FILLER_0_25_225
*1246 FILLER_0_25_237
*1247 FILLER_0_25_249
*1248 FILLER_0_25_261
*1249 FILLER_0_25_27
*1250 FILLER_0_25_273
*1251 FILLER_0_25_279
*1252 FILLER_0_25_281
*1253 FILLER_0_25_293
*1254 FILLER_0_25_3
*1255 FILLER_0_25_305
*1256 FILLER_0_25_317
*1257 FILLER_0_25_329
*1258 FILLER_0_25_39
*1259 FILLER_0_25_51
*1260 FILLER_0_25_55
*1261 FILLER_0_25_57
*1262 FILLER_0_25_69
*1263 FILLER_0_25_81
*1264 FILLER_0_25_93
*1265 FILLER_0_26_109
*1266 FILLER_0_26_121
*1267 FILLER_0_26_133
*1268 FILLER_0_26_139
*1269 FILLER_0_26_141
*1270 FILLER_0_26_15
*1271 FILLER_0_26_153
*1272 FILLER_0_26_165
*1273 FILLER_0_26_177
*1274 FILLER_0_26_189
*1275 FILLER_0_26_195
*1276 FILLER_0_26_197
*1277 FILLER_0_26_209
*1278 FILLER_0_26_221
*1279 FILLER_0_26_233
*1280 FILLER_0_26_245
*1281 FILLER_0_26_251
*1282 FILLER_0_26_253
*1283 FILLER_0_26_265
*1284 FILLER_0_26_27
*1285 FILLER_0_26_277
*1286 FILLER_0_26_289
*1287 FILLER_0_26_29
*1288 FILLER_0_26_3
*1289 FILLER_0_26_301
*1290 FILLER_0_26_307
*1291 FILLER_0_26_309
*1292 FILLER_0_26_321
*1293 FILLER_0_26_333
*1294 FILLER_0_26_41
*1295 FILLER_0_26_53
*1296 FILLER_0_26_65
*1297 FILLER_0_26_77
*1298 FILLER_0_26_83
*1299 FILLER_0_26_85
*1300 FILLER_0_26_97
*1301 FILLER_0_27_105
*1302 FILLER_0_27_111
*1303 FILLER_0_27_113
*1304 FILLER_0_27_125
*1305 FILLER_0_27_137
*1306 FILLER_0_27_149
*1307 FILLER_0_27_15
*1308 FILLER_0_27_161
*1309 FILLER_0_27_167
*1310 FILLER_0_27_169
*1311 FILLER_0_27_181
*1312 FILLER_0_27_193
*1313 FILLER_0_27_205
*1314 FILLER_0_27_217
*1315 FILLER_0_27_223
*1316 FILLER_0_27_225
*1317 FILLER_0_27_237
*1318 FILLER_0_27_249
*1319 FILLER_0_27_261
*1320 FILLER_0_27_27
*1321 FILLER_0_27_273
*1322 FILLER_0_27_279
*1323 FILLER_0_27_281
*1324 FILLER_0_27_293
*1325 FILLER_0_27_3
*1326 FILLER_0_27_305
*1327 FILLER_0_27_317
*1328 FILLER_0_27_329
*1329 FILLER_0_27_39
*1330 FILLER_0_27_51
*1331 FILLER_0_27_55
*1332 FILLER_0_27_57
*1333 FILLER_0_27_69
*1334 FILLER_0_27_81
*1335 FILLER_0_27_93
*1336 FILLER_0_28_109
*1337 FILLER_0_28_121
*1338 FILLER_0_28_133
*1339 FILLER_0_28_139
*1340 FILLER_0_28_141
*1341 FILLER_0_28_15
*1342 FILLER_0_28_153
*1343 FILLER_0_28_165
*1344 FILLER_0_28_177
*1345 FILLER_0_28_189
*1346 FILLER_0_28_195
*1347 FILLER_0_28_197
*1348 FILLER_0_28_209
*1349 FILLER_0_28_221
*1350 FILLER_0_28_233
*1351 FILLER_0_28_245
*1352 FILLER_0_28_251
*1353 FILLER_0_28_253
*1354 FILLER_0_28_265
*1355 FILLER_0_28_27
*1356 FILLER_0_28_277
*1357 FILLER_0_28_289
*1358 FILLER_0_28_29
*1359 FILLER_0_28_3
*1360 FILLER_0_28_301
*1361 FILLER_0_28_307
*1362 FILLER_0_28_309
*1363 FILLER_0_28_321
*1364 FILLER_0_28_333
*1365 FILLER_0_28_41
*1366 FILLER_0_28_53
*1367 FILLER_0_28_65
*1368 FILLER_0_28_77
*1369 FILLER_0_28_83
*1370 FILLER_0_28_85
*1371 FILLER_0_28_97
*1372 FILLER_0_29_105
*1373 FILLER_0_29_111
*1374 FILLER_0_29_113
*1375 FILLER_0_29_125
*1376 FILLER_0_29_137
*1377 FILLER_0_29_149
*1378 FILLER_0_29_15
*1379 FILLER_0_29_161
*1380 FILLER_0_29_167
*1381 FILLER_0_29_169
*1382 FILLER_0_29_181
*1383 FILLER_0_29_193
*1384 FILLER_0_29_205
*1385 FILLER_0_29_217
*1386 FILLER_0_29_223
*1387 FILLER_0_29_225
*1388 FILLER_0_29_237
*1389 FILLER_0_29_249
*1390 FILLER_0_29_261
*1391 FILLER_0_29_27
*1392 FILLER_0_29_273
*1393 FILLER_0_29_279
*1394 FILLER_0_29_281
*1395 FILLER_0_29_293
*1396 FILLER_0_29_3
*1397 FILLER_0_29_305
*1398 FILLER_0_29_317
*1399 FILLER_0_29_329
*1400 FILLER_0_29_39
*1401 FILLER_0_29_51
*1402 FILLER_0_29_55
*1403 FILLER_0_29_57
*1404 FILLER_0_29_69
*1405 FILLER_0_29_81
*1406 FILLER_0_29_93
*1407 FILLER_0_2_109
*1408 FILLER_0_2_121
*1409 FILLER_0_2_133
*1410 FILLER_0_2_139
*1411 FILLER_0_2_141
*1412 FILLER_0_2_15
*1413 FILLER_0_2_153
*1414 FILLER_0_2_165
*1415 FILLER_0_2_177
*1416 FILLER_0_2_189
*1417 FILLER_0_2_195
*1418 FILLER_0_2_197
*1419 FILLER_0_2_209
*1420 FILLER_0_2_221
*1421 FILLER_0_2_233
*1422 FILLER_0_2_245
*1423 FILLER_0_2_251
*1424 FILLER_0_2_253
*1425 FILLER_0_2_265
*1426 FILLER_0_2_27
*1427 FILLER_0_2_277
*1428 FILLER_0_2_289
*1429 FILLER_0_2_29
*1430 FILLER_0_2_3
*1431 FILLER_0_2_301
*1432 FILLER_0_2_307
*1433 FILLER_0_2_309
*1434 FILLER_0_2_321
*1435 FILLER_0_2_333
*1436 FILLER_0_2_41
*1437 FILLER_0_2_53
*1438 FILLER_0_2_65
*1439 FILLER_0_2_77
*1440 FILLER_0_2_83
*1441 FILLER_0_2_85
*1442 FILLER_0_2_97
*1443 FILLER_0_30_109
*1444 FILLER_0_30_121
*1445 FILLER_0_30_133
*1446 FILLER_0_30_139
*1447 FILLER_0_30_141
*1448 FILLER_0_30_15
*1449 FILLER_0_30_153
*1450 FILLER_0_30_165
*1451 FILLER_0_30_177
*1452 FILLER_0_30_189
*1453 FILLER_0_30_195
*1454 FILLER_0_30_197
*1455 FILLER_0_30_209
*1456 FILLER_0_30_221
*1457 FILLER_0_30_233
*1458 FILLER_0_30_245
*1459 FILLER_0_30_251
*1460 FILLER_0_30_253
*1461 FILLER_0_30_265
*1462 FILLER_0_30_27
*1463 FILLER_0_30_277
*1464 FILLER_0_30_289
*1465 FILLER_0_30_29
*1466 FILLER_0_30_3
*1467 FILLER_0_30_301
*1468 FILLER_0_30_307
*1469 FILLER_0_30_309
*1470 FILLER_0_30_321
*1471 FILLER_0_30_333
*1472 FILLER_0_30_41
*1473 FILLER_0_30_53
*1474 FILLER_0_30_65
*1475 FILLER_0_30_77
*1476 FILLER_0_30_83
*1477 FILLER_0_30_85
*1478 FILLER_0_30_97
*1479 FILLER_0_31_105
*1480 FILLER_0_31_111
*1481 FILLER_0_31_113
*1482 FILLER_0_31_125
*1483 FILLER_0_31_137
*1484 FILLER_0_31_149
*1485 FILLER_0_31_15
*1486 FILLER_0_31_161
*1487 FILLER_0_31_167
*1488 FILLER_0_31_169
*1489 FILLER_0_31_181
*1490 FILLER_0_31_193
*1491 FILLER_0_31_205
*1492 FILLER_0_31_217