*SPEF "ieee 1481-1999"
*DESIGN "tt_um_factory_test"
*DATE "11:11:11 Fri 11 11, 1111"
*VENDOR "OpenRCX"
*PROGRAM "Parallel Extraction"
*VERSION "1.0"
*DESIGN_FLOW "NAME_SCOPE LOCAL" "PIN_CAP NONE"
*DIVIDER /
*DELIMITER :
*BUS_DELIMITER []
*T_UNIT 1 NS
*C_UNIT 1 PF
*R_UNIT 1 OHM
*L_UNIT 1 HENRY

*NAME_MAP
*3 clk
*4 ena
*5 rst_n
*6 ui_in[0]
*7 ui_in[1]
*8 ui_in[2]
*9 ui_in[3]
*10 ui_in[4]
*11 ui_in[5]
*12 ui_in[6]
*13 ui_in[7]
*14 uio_in[0]
*15 uio_in[1]
*16 uio_in[2]
*17 uio_in[3]
*18 uio_in[4]
*19 uio_in[5]
*20 uio_in[6]
*21 uio_in[7]
*22 uio_oe[0]
*23 uio_oe[1]
*24 uio_oe[2]
*25 uio_oe[3]
*26 uio_oe[4]
*27 uio_oe[5]
*28 uio_oe[6]
*29 uio_oe[7]
*30 uio_out[0]
*31 uio_out[1]
*32 uio_out[2]
*33 uio_out[3]
*34 uio_out[4]
*35 uio_out[5]
*36 uio_out[6]
*37 uio_out[7]
*38 uo_out[0]
*39 uo_out[1]
*40 uo_out[2]
*41 uo_out[3]
*42 uo_out[4]
*43 uo_out[5]
*44 uo_out[6]
*45 uo_out[7]
*46 _000_
*47 _001_
*48 _002_
*49 _003_
*50 _004_
*51 _005_
*52 _006_
*53 _007_
*54 _008_
*55 _009_
*56 _010_
*57 _011_
*58 _012_
*59 _013_
*60 _014_
*61 _015_
*62 _016_
*63 _017_
*64 _018_
*65 _019_
*66 _020_
*67 _021_
*68 _022_
*69 _023_
*70 _024_
*71 _025_
*72 _026_
*73 _027_
*74 _028_
*75 _029_
*76 _030_
*77 _031_
*78 _032_
*79 _033_
*80 clknet_0_clk
*81 clknet_1_0__leaf_clk
*82 clknet_1_1__leaf_clk
*83 cnt\[0\]
*84 cnt\[1\]
*85 cnt\[2\]
*86 cnt\[3\]
*87 cnt\[4\]
*88 cnt\[5\]
*89 cnt\[6\]
*90 cnt\[7\]
*91 net1
*92 net10
*93 net11
*94 net12
*95 net13
*96 net14
*97 net15
*98 net16
*99 net17
*100 net18
*101 net19
*102 net2
*103 net20
*104 net21
*105 net3
*106 net4
*107 net5
*108 net6
*109 net7
*110 net8
*111 net9
*112 rst_n_i
*113 FILLER_0_0_109
*114 FILLER_0_0_113
*115 FILLER_0_0_125
*116 FILLER_0_0_137
*117 FILLER_0_0_141
*118 FILLER_0_0_15
*119 FILLER_0_0_153
*120 FILLER_0_0_165
*121 FILLER_0_0_169
*122 FILLER_0_0_181
*123 FILLER_0_0_193
*124 FILLER_0_0_197
*125 FILLER_0_0_209
*126 FILLER_0_0_221
*127 FILLER_0_0_225
*128 FILLER_0_0_237
*129 FILLER_0_0_249
*130 FILLER_0_0_253
*131 FILLER_0_0_265
*132 FILLER_0_0_27
*133 FILLER_0_0_277
*134 FILLER_0_0_281
*135 FILLER_0_0_29
*136 FILLER_0_0_293
*137 FILLER_0_0_3
*138 FILLER_0_0_305
*139 FILLER_0_0_309
*140 FILLER_0_0_321
*141 FILLER_0_0_333
*142 FILLER_0_0_337
*143 FILLER_0_0_349
*144 FILLER_0_0_41
*145 FILLER_0_0_53
*146 FILLER_0_0_57
*147 FILLER_0_0_69
*148 FILLER_0_0_81
*149 FILLER_0_0_85
*150 FILLER_0_0_97
*151 FILLER_0_10_109
*152 FILLER_0_10_121
*153 FILLER_0_10_133
*154 FILLER_0_10_139
*155 FILLER_0_10_141
*156 FILLER_0_10_15
*157 FILLER_0_10_153
*158 FILLER_0_10_165
*159 FILLER_0_10_177
*160 FILLER_0_10_189
*161 FILLER_0_10_195
*162 FILLER_0_10_197
*163 FILLER_0_10_209
*164 FILLER_0_10_221
*165 FILLER_0_10_233
*166 FILLER_0_10_245
*167 FILLER_0_10_251
*168 FILLER_0_10_253
*169 FILLER_0_10_265
*170 FILLER_0_10_27
*171 FILLER_0_10_277
*172 FILLER_0_10_289
*173 FILLER_0_10_29
*174 FILLER_0_10_3
*175 FILLER_0_10_301
*176 FILLER_0_10_307
*177 FILLER_0_10_309
*178 FILLER_0_10_321
*179 FILLER_0_10_333
*180 FILLER_0_10_345
*181 FILLER_0_10_41
*182 FILLER_0_10_53
*183 FILLER_0_10_65
*184 FILLER_0_10_77
*185 FILLER_0_10_83
*186 FILLER_0_10_85
*187 FILLER_0_10_97
*188 FILLER_0_11_105
*189 FILLER_0_11_111
*190 FILLER_0_11_113
*191 FILLER_0_11_125
*192 FILLER_0_11_137
*193 FILLER_0_11_149
*194 FILLER_0_11_15
*195 FILLER_0_11_161
*196 FILLER_0_11_167
*197 FILLER_0_11_169
*198 FILLER_0_11_181
*199 FILLER_0_11_193
*200 FILLER_0_11_205
*201 FILLER_0_11_217
*202 FILLER_0_11_223
*203 FILLER_0_11_225
*204 FILLER_0_11_237
*205 FILLER_0_11_249
*206 FILLER_0_11_261
*207 FILLER_0_11_27
*208 FILLER_0_11_273
*209 FILLER_0_11_279
*210 FILLER_0_11_281
*211 FILLER_0_11_293
*212 FILLER_0_11_3
*213 FILLER_0_11_305
*214 FILLER_0_11_317
*215 FILLER_0_11_329
*216 FILLER_0_11_335
*217 FILLER_0_11_337
*218 FILLER_0_11_349
*219 FILLER_0_11_39
*220 FILLER_0_11_51
*221 FILLER_0_11_55
*222 FILLER_0_11_57
*223 FILLER_0_11_69
*224 FILLER_0_11_81
*225 FILLER_0_11_93
*226 FILLER_0_12_109
*227 FILLER_0_12_121
*228 FILLER_0_12_133
*229 FILLER_0_12_139
*230 FILLER_0_12_141
*231 FILLER_0_12_15
*232 FILLER_0_12_153
*233 FILLER_0_12_165
*234 FILLER_0_12_177
*235 FILLER_0_12_189
*236 FILLER_0_12_195
*237 FILLER_0_12_197
*238 FILLER_0_12_209
*239 FILLER_0_12_221
*240 FILLER_0_12_233
*241 FILLER_0_12_245
*242 FILLER_0_12_251
*243 FILLER_0_12_253
*244 FILLER_0_12_265
*245 FILLER_0_12_27
*246 FILLER_0_12_277
*247 FILLER_0_12_289
*248 FILLER_0_12_29
*249 FILLER_0_12_3
*250 FILLER_0_12_301
*251 FILLER_0_12_307
*252 FILLER_0_12_309
*253 FILLER_0_12_321
*254 FILLER_0_12_333
*255 FILLER_0_12_345
*256 FILLER_0_12_41
*257 FILLER_0_12_53
*258 FILLER_0_12_65
*259 FILLER_0_12_77
*260 FILLER_0_12_83
*261 FILLER_0_12_85
*262 FILLER_0_12_97
*263 FILLER_0_13_105
*264 FILLER_0_13_111
*265 FILLER_0_13_113
*266 FILLER_0_13_125
*267 FILLER_0_13_137
*268 FILLER_0_13_149
*269 FILLER_0_13_15
*270 FILLER_0_13_161
*271 FILLER_0_13_167
*272 FILLER_0_13_169
*273 FILLER_0_13_181
*274 FILLER_0_13_193
*275 FILLER_0_13_205
*276 FILLER_0_13_217
*277 FILLER_0_13_223
*278 FILLER_0_13_225
*279 FILLER_0_13_237
*280 FILLER_0_13_249
*281 FILLER_0_13_261
*282 FILLER_0_13_27
*283 FILLER_0_13_273
*284 FILLER_0_13_279
*285 FILLER_0_13_281
*286 FILLER_0_13_293
*287 FILLER_0_13_3
*288 FILLER_0_13_305
*289 FILLER_0_13_317
*290 FILLER_0_13_329
*291 FILLER_0_13_335
*292 FILLER_0_13_337
*293 FILLER_0_13_349
*294 FILLER_0_13_39
*295 FILLER_0_13_51
*296 FILLER_0_13_55
*297 FILLER_0_13_57
*298 FILLER_0_13_69
*299 FILLER_0_13_81
*300 FILLER_0_13_93
*301 FILLER_0_14_109
*302 FILLER_0_14_121
*303 FILLER_0_14_133
*304 FILLER_0_14_139
*305 FILLER_0_14_141
*306 FILLER_0_14_15
*307 FILLER_0_14_153
*308 FILLER_0_14_165
*309 FILLER_0_14_177
*310 FILLER_0_14_189
*311 FILLER_0_14_195
*312 FILLER_0_14_197
*313 FILLER_0_14_209
*314 FILLER_0_14_221
*315 FILLER_0_14_233
*316 FILLER_0_14_245
*317 FILLER_0_14_251
*318 FILLER_0_14_253
*319 FILLER_0_14_265
*320 FILLER_0_14_27
*321 FILLER_0_14_277
*322 FILLER_0_14_289
*323 FILLER_0_14_29
*324 FILLER_0_14_3
*325 FILLER_0_14_301
*326 FILLER_0_14_307
*327 FILLER_0_14_309
*328 FILLER_0_14_321
*329 FILLER_0_14_333
*330 FILLER_0_14_345
*331 FILLER_0_14_41
*332 FILLER_0_14_53
*333 FILLER_0_14_65
*334 FILLER_0_14_77
*335 FILLER_0_14_83
*336 FILLER_0_14_85
*337 FILLER_0_14_97
*338 FILLER_0_15_105
*339 FILLER_0_15_111
*340 FILLER_0_15_113
*341 FILLER_0_15_125
*342 FILLER_0_15_137
*343 FILLER_0_15_149
*344 FILLER_0_15_15
*345 FILLER_0_15_161
*346 FILLER_0_15_167
*347 FILLER_0_15_169
*348 FILLER_0_15_181
*349 FILLER_0_15_193
*350 FILLER_0_15_205
*351 FILLER_0_15_217
*352 FILLER_0_15_223
*353 FILLER_0_15_225
*354 FILLER_0_15_237
*355 FILLER_0_15_249
*356 FILLER_0_15_261
*357 FILLER_0_15_27
*358 FILLER_0_15_273
*359 FILLER_0_15_279
*360 FILLER_0_15_281
*361 FILLER_0_15_293
*362 FILLER_0_15_3
*363 FILLER_0_15_305
*364 FILLER_0_15_317
*365 FILLER_0_15_329
*366 FILLER_0_15_335
*367 FILLER_0_15_337
*368 FILLER_0_15_349
*369 FILLER_0_15_39
*370 FILLER_0_15_51
*371 FILLER_0_15_55
*372 FILLER_0_15_57
*373 FILLER_0_15_69
*374 FILLER_0_15_81
*375 FILLER_0_15_93
*376 FILLER_0_16_109
*377 FILLER_0_16_121
*378 FILLER_0_16_133
*379 FILLER_0_16_139
*380 FILLER_0_16_141
*381 FILLER_0_16_15
*382 FILLER_0_16_153
*383 FILLER_0_16_165
*384 FILLER_0_16_177
*385 FILLER_0_16_189
*386 FILLER_0_16_195
*387 FILLER_0_16_197
*388 FILLER_0_16_209
*389 FILLER_0_16_221
*390 FILLER_0_16_233
*391 FILLER_0_16_245
*392 FILLER_0_16_251
*393 FILLER_0_16_253
*394 FILLER_0_16_265
*395 FILLER_0_16_27
*396 FILLER_0_16_277
*397 FILLER_0_16_289
*398 FILLER_0_16_29
*399 FILLER_0_16_3
*400 FILLER_0_16_301
*401 FILLER_0_16_307
*402 FILLER_0_16_309
*403 FILLER_0_16_321
*404 FILLER_0_16_333
*405 FILLER_0_16_345
*406 FILLER_0_16_41
*407 FILLER_0_16_53
*408 FILLER_0_16_65
*409 FILLER_0_16_77
*410 FILLER_0_16_83
*411 FILLER_0_16_85
*412 FILLER_0_16_97
*413 FILLER_0_17_105
*414 FILLER_0_17_111
*415 FILLER_0_17_113
*416 FILLER_0_17_125
*417 FILLER_0_17_137
*418 FILLER_0_17_149
*419 FILLER_0_17_15
*420 FILLER_0_17_161
*421 FILLER_0_17_167
*422 FILLER_0_17_169
*423 FILLER_0_17_181
*424 FILLER_0_17_193
*425 FILLER_0_17_205
*426 FILLER_0_17_217
*427 FILLER_0_17_223
*428 FILLER_0_17_225
*429 FILLER_0_17_237
*430 FILLER_0_17_249
*431 FILLER_0_17_261
*432 FILLER_0_17_27
*433 FILLER_0_17_273
*434 FILLER_0_17_279
*435 FILLER_0_17_281
*436 FILLER_0_17_293
*437 FILLER_0_17_3
*438 FILLER_0_17_305
*439 FILLER_0_17_317
*440 FILLER_0_17_329
*441 FILLER_0_17_335
*442 FILLER_0_17_337
*443 FILLER_0_17_349
*444 FILLER_0_17_39
*445 FILLER_0_17_51
*446 FILLER_0_17_55
*447 FILLER_0_17_57
*448 FILLER_0_17_69
*449 FILLER_0_17_81
*450 FILLER_0_17_93
*451 FILLER_0_18_109
*452 FILLER_0_18_121
*453 FILLER_0_18_133
*454 FILLER_0_18_139
*455 FILLER_0_18_141
*456 FILLER_0_18_15
*457 FILLER_0_18_153
*458 FILLER_0_18_165
*459 FILLER_0_18_177
*460 FILLER_0_18_189
*461 FILLER_0_18_195
*462 FILLER_0_18_197
*463 FILLER_0_18_209
*464 FILLER_0_18_221
*465 FILLER_0_18_233
*466 FILLER_0_18_245
*467 FILLER_0_18_251
*468 FILLER_0_18_253
*469 FILLER_0_18_265
*470 FILLER_0_18_27
*471 FILLER_0_18_277
*472 FILLER_0_18_289
*473 FILLER_0_18_29
*474 FILLER_0_18_3
*475 FILLER_0_18_301
*476 FILLER_0_18_307
*477 FILLER_0_18_309
*478 FILLER_0_18_321
*479 FILLER_0_18_333
*480 FILLER_0_18_345
*481 FILLER_0_18_41
*482 FILLER_0_18_53
*483 FILLER_0_18_65
*484 FILLER_0_18_77
*485 FILLER_0_18_83
*486 FILLER_0_18_85
*487 FILLER_0_18_97
*488 FILLER_0_19_105
*489 FILLER_0_19_111
*490 FILLER_0_19_113
*491 FILLER_0_19_125
*492 FILLER_0_19_137
*493 FILLER_0_19_149
*494 FILLER_0_19_15
*495 FILLER_0_19_161
*496 FILLER_0_19_167
*497 FILLER_0_19_169
*498 FILLER_0_19_181
*499 FILLER_0_19_193
*500 FILLER_0_19_205
*501 FILLER_0_19_217
*502 FILLER_0_19_223
*503 FILLER_0_19_225
*504 FILLER_0_19_237
*505 FILLER_0_19_249
*506 FILLER_0_19_261
*507 FILLER_0_19_27
*508 FILLER_0_19_273
*509 FILLER_0_19_279
*510 FILLER_0_19_281
*511 FILLER_0_19_293
*512 FILLER_0_19_3
*513 FILLER_0_19_305
*514 FILLER_0_19_317
*515 FILLER_0_19_329
*516 FILLER_0_19_335
*517 FILLER_0_19_337
*518 FILLER_0_19_349
*519 FILLER_0_19_39
*520 FILLER_0_19_51
*521 FILLER_0_19_55
*522 FILLER_0_19_57
*523 FILLER_0_19_69
*524 FILLER_0_19_81
*525 FILLER_0_19_93
*526 FILLER_0_1_105
*527 FILLER_0_1_111
*528 FILLER_0_1_113
*529 FILLER_0_1_125
*530 FILLER_0_1_137
*531 FILLER_0_1_149
*532 FILLER_0_1_15
*533 FILLER_0_1_161
*534 FILLER_0_1_167
*535 FILLER_0_1_169
*536 FILLER_0_1_181
*537 FILLER_0_1_193
*538 FILLER_0_1_205
*539 FILLER_0_1_217
*540 FILLER_0_1_223
*541 FILLER_0_1_225
*542 FILLER_0_1_237
*543 FILLER_0_1_249
*544 FILLER_0_1_261
*545 FILLER_0_1_27
*546 FILLER_0_1_273
*547 FILLER_0_1_279
*548 FILLER_0_1_281
*549 FILLER_0_1_293
*550 FILLER_0_1_3
*551 FILLER_0_1_305
*552 FILLER_0_1_317
*553 FILLER_0_1_329
*554 FILLER_0_1_335
*555 FILLER_0_1_337
*556 FILLER_0_1_349
*557 FILLER_0_1_39
*558 FILLER_0_1_51
*559 FILLER_0_1_55
*560 FILLER_0_1_57
*561 FILLER_0_1_69
*562 FILLER_0_1_81
*563 FILLER_0_1_93
*564 FILLER_0_20_109
*565 FILLER_0_20_121
*566 FILLER_0_20_133
*567 FILLER_0_20_139
*568 FILLER_0_20_141
*569 FILLER_0_20_15
*570 FILLER_0_20_153
*571 FILLER_0_20_165
*572 FILLER_0_20_177
*573 FILLER_0_20_189
*574 FILLER_0_20_195
*575 FILLER_0_20_197
*576 FILLER_0_20_209
*577 FILLER_0_20_221
*578 FILLER_0_20_233
*579 FILLER_0_20_245
*580 FILLER_0_20_251
*581 FILLER_0_20_253
*582 FILLER_0_20_265
*583 FILLER_0_20_27
*584 FILLER_0_20_277
*585 FILLER_0_20_289
*586 FILLER_0_20_29
*587 FILLER_0_20_3
*588 FILLER_0_20_301
*589 FILLER_0_20_307
*590 FILLER_0_20_309
*591 FILLER_0_20_321
*592 FILLER_0_20_333
*593 FILLER_0_20_345
*594 FILLER_0_20_41
*595 FILLER_0_20_53
*596 FILLER_0_20_65
*597 FILLER_0_20_77
*598 FILLER_0_20_83
*599 FILLER_0_20_85
*600 FILLER_0_20_97
*601 FILLER_0_21_105
*602 FILLER_0_21_111
*603 FILLER_0_21_113
*604 FILLER_0_21_125
*605 FILLER_0_21_137
*606 FILLER_0_21_149
*607 FILLER_0_21_15
*608 FILLER_0_21_161
*609 FILLER_0_21_167
*610 FILLER_0_21_169
*611 FILLER_0_21_181
*612 FILLER_0_21_193
*613 FILLER_0_21_205
*614 FILLER_0_21_217
*615 FILLER_0_21_223
*616 FILLER_0_21_225
*617 FILLER_0_21_237
*618 FILLER_0_21_249
*619 FILLER_0_21_261
*620 FILLER_0_21_27
*621 FILLER_0_21_273
*622 FILLER_0_21_279
*623 FILLER_0_21_281
*624 FILLER_0_21_293
*625 FILLER_0_21_3
*626 FILLER_0_21_305
*627 FILLER_0_21_317
*628 FILLER_0_21_329
*629 FILLER_0_21_335
*630 FILLER_0_21_337
*631 FILLER_0_21_349
*632 FILLER_0_21_39
*633 FILLER_0_21_51
*634 FILLER_0_21_55
*635 FILLER_0_21_57
*636 FILLER_0_21_69
*637 FILLER_0_21_81
*638 FILLER_0_21_93
*639 FILLER_0_22_109
*640 FILLER_0_22_121
*641 FILLER_0_22_133
*642 FILLER_0_22_139
*643 FILLER_0_22_141
*644 FILLER_0_22_15
*645 FILLER_0_22_153
*646 FILLER_0_22_165
*647 FILLER_0_22_177
*648 FILLER_0_22_189
*649 FILLER_0_22_195
*650 FILLER_0_22_197
*651 FILLER_0_22_209
*652 FILLER_0_22_221
*653 FILLER_0_22_233
*654 FILLER_0_22_245
*655 FILLER_0_22_251
*656 FILLER_0_22_253
*657 FILLER_0_22_265
*658 FILLER_0_22_27
*659 FILLER_0_22_277
*660 FILLER_0_22_289
*661 FILLER_0_22_29
*662 FILLER_0_22_3
*663 FILLER_0_22_301
*664 FILLER_0_22_307
*665 FILLER_0_22_309
*666 FILLER_0_22_321
*667 FILLER_0_22_333
*668 FILLER_0_22_345
*669 FILLER_0_22_41
*670 FILLER_0_22_53
*671 FILLER_0_22_65
*672 FILLER_0_22_77
*673 FILLER_0_22_83
*674 FILLER_0_22_85
*675 FILLER_0_22_97
*676 FILLER_0_23_105
*677 FILLER_0_23_111
*678 FILLER_0_23_113
*679 FILLER_0_23_125
*680 FILLER_0_23_137
*681 FILLER_0_23_149
*682 FILLER_0_23_15
*683 FILLER_0_23_161
*684 FILLER_0_23_167
*685 FILLER_0_23_169
*686 FILLER_0_23_181
*687 FILLER_0_23_193
*688 FILLER_0_23_205
*689 FILLER_0_23_217
*690 FILLER_0_23_223
*691 FILLER_0_23_225
*692 FILLER_0_23_237
*693 FILLER_0_23_249
*694 FILLER_0_23_261
*695 FILLER_0_23_27
*696 FILLER_0_23_273
*697 FILLER_0_23_279
*698 FILLER_0_23_281
*699 FILLER_0_23_293
*700 FILLER_0_23_3
*701 FILLER_0_23_305
*702 FILLER_0_23_317
*703 FILLER_0_23_329
*704 FILLER_0_23_335
*705 FILLER_0_23_337
*706 FILLER_0_23_349
*707 FILLER_0_23_39
*708 FILLER_0_23_51
*709 FILLER_0_23_55
*710 FILLER_0_23_57
*711 FILLER_0_23_69
*712 FILLER_0_23_81
*713 FILLER_0_23_93
*714 FILLER_0_24_109
*715 FILLER_0_24_121
*716 FILLER_0_24_133
*717 FILLER_0_24_139
*718 FILLER_0_24_141
*719 FILLER_0_24_15
*720 FILLER_0_24_153
*721 FILLER_0_24_165
*722 FILLER_0_24_177
*723 FILLER_0_24_189
*724 FILLER_0_24_195
*725 FILLER_0_24_197
*726 FILLER_0_24_209
*727 FILLER_0_24_221
*728 FILLER_0_24_233
*729 FILLER_0_24_245
*730 FILLER_0_24_251
*731 FILLER_0_24_253
*732 FILLER_0_24_265
*733 FILLER_0_24_27
*734 FILLER_0_24_277
*735 FILLER_0_24_289
*736 FILLER_0_24_29
*737 FILLER_0_24_3
*738 FILLER_0_24_301
*739 FILLER_0_24_307
*740 FILLER_0_24_309
*741 FILLER_0_24_321
*742 FILLER_0_24_333
*743 FILLER_0_24_345
*744 FILLER_0_24_41
*745 FILLER_0_24_53
*746 FILLER_0_24_65
*747 FILLER_0_24_77
*748 FILLER_0_24_83
*749 FILLER_0_24_85
*750 FILLER_0_24_97
*751 FILLER_0_25_105
*752 FILLER_0_25_111
*753 FILLER_0_25_113
*754 FILLER_0_25_125
*755 FILLER_0_25_137
*756 FILLER_0_25_149
*757 FILLER_0_25_15
*758 FILLER_0_25_161
*759 FILLER_0_25_167
*760 FILLER_0_25_169
*761 FILLER_0_25_181
*762 FILLER_0_25_193
*763 FILLER_0_25_205
*764 FILLER_0_25_217
*765 FILLER_0_25_223
*766 FILLER_0_25_225
*767 FILLER_0_25_237
*768 FILLER_0_25_249
*769 FILLER_0_25_261
*770 FILLER_0_25_27
*771 FILLER_0_25_273
*772 FILLER_0_25_279
*773 FILLER_0_25_281
*774 FILLER_0_25_293
*775 FILLER_0_25_3
*776 FILLER_0_25_305
*777 FILLER_0_25_317
*778 FILLER_0_25_329
*779 FILLER_0_25_335
*780 FILLER_0_25_337
*781 FILLER_0_25_349
*782 FILLER_0_25_39
*783 FILLER_0_25_51
*784 FILLER_0_25_55
*785 FILLER_0_25_57
*786 FILLER_0_25_69
*787 FILLER_0_25_81
*788 FILLER_0_25_93
*789 FILLER_0_26_109
*790 FILLER_0_26_121
*791 FILLER_0_26_133
*792 FILLER_0_26_139
*793 FILLER_0_26_141
*794 FILLER_0_26_15
*795 FILLER_0_26_153
*796 FILLER_0_26_165
*797 FILLER_0_26_177
*798 FILLER_0_26_189
*799 FILLER_0_26_195
*800 FILLER_0_26_197
*801 FILLER_0_26_209
*802 FILLER_0_26_221
*803 FILLER_0_26_233
*804 FILLER_0_26_245
*805 FILLER_0_26_251
*806 FILLER_0_26_253
*807 FILLER_0_26_265
*808 FILLER_0_26_27
*809 FILLER_0_26_277
*810 FILLER_0_26_289
*811 FILLER_0_26_29
*812 FILLER_0_26_3
*813 FILLER_0_26_301
*814 FILLER_0_26_307
*815 FILLER_0_26_309
*816 FILLER_0_26_321
*817 FILLER_0_26_333
*818 FILLER_0_26_345
*819 FILLER_0_26_41
*820 FILLER_0_26_53
*821 FILLER_0_26_65
*822 FILLER_0_26_77
*823 FILLER_0_26_83
*824 FILLER_0_26_85
*825 FILLER_0_26_97
*826 FILLER_0_27_105
*827 FILLER_0_27_111
*828 FILLER_0_27_113
*829 FILLER_0_27_125
*830 FILLER_0_27_137
*831 FILLER_0_27_149
*832 FILLER_0_27_15
*833 FILLER_0_27_161
*834 FILLER_0_27_167
*835 FILLER_0_27_169
*836 FILLER_0_27_181
*837 FILLER_0_27_193
*838 FILLER_0_27_205
*839 FILLER_0_27_217
*840 FILLER_0_27_223
*841 FILLER_0_27_225
*842 FILLER_0_27_237
*843 FILLER_0_27_249
*844 FILLER_0_27_261
*845 FILLER_0_27_27
*846 FILLER_0_27_273
*847 FILLER_0_27_279
*848 FILLER_0_27_281
*849 FILLER_0_27_293
*850 FILLER_0_27_3
*851 FILLER_0_27_305
*852 FILLER_0_27_317
*853 FILLER_0_27_329
*854 FILLER_0_27_335
*855 FILLER_0_27_337
*856 FILLER_0_27_349
*857 FILLER_0_27_39
*858 FILLER_0_27_51
*859 FILLER_0_27_55
*860 FILLER_0_27_57
*861 FILLER_0_27_69
*862 FILLER_0_27_81
*863 FILLER_0_27_93
*864 FILLER_0_28_109
*865 FILLER_0_28_121
*866 FILLER_0_28_133
*867 FILLER_0_28_139
*868 FILLER_0_28_141
*869 FILLER_0_28_15
*870 FILLER_0_28_153
*871 FILLER_0_28_165
*872 FILLER_0_28_177
*873 FILLER_0_28_189
*874 FILLER_0_28_195
*875 FILLER_0_28_197
*876 FILLER_0_28_209
*877 FILLER_0_28_221
*878 FILLER_0_28_233
*879 FILLER_0_28_245
*880 FILLER_0_28_251
*881 FILLER_0_28_253
*882 FILLER_0_28_265
*883 FILLER_0_28_27
*884 FILLER_0_28_277
*885 FILLER_0_28_289
*886 FILLER_0_28_29
*887 FILLER_0_28_3
*888 FILLER_0_28_301
*889 FILLER_0_28_307
*890 FILLER_0_28_309
*891 FILLER_0_28_321
*892 FILLER_0_28_333
*893 FILLER_0_28_345
*894 FILLER_0_28_41
*895 FILLER_0_28_53
*896 FILLER_0_28_65
*897 FILLER_0_28_77
*898 FILLER_0_28_83
*899 FILLER_0_28_85
*900 FILLER_0_28_97
*901 FILLER_0_29_105
*902 FILLER_0_29_111
*903 FILLER_0_29_113
*904 FILLER_0_29_125
*905 FILLER_0_29_137
*906 FILLER_0_29_149
*907 FILLER_0_29_15
*908 FILLER_0_29_161
*909 FILLER_0_29_167
*910 FILLER_0_29_169
*911 FILLER_0_29_181
*912 FILLER_0_29_193
*913 FILLER_0_29_205
*914 FILLER_0_29_217
*915 FILLER_0_29_223
*916 FILLER_0_29_225
*917 FILLER_0_29_237
*918 FILLER_0_29_249
*919 FILLER_0_29_261
*920 FILLER_0_29_27
*921 FILLER_0_29_273
*922 FILLER_0_29_279
*923 FILLER_0_29_281
*924 FILLER_0_29_293
*925 FILLER_0_29_3
*926 FILLER_0_29_305
*927 FILLER_0_29_317
*928 FILLER_0_29_329
*929 FILLER_0_29_335
*930 FILLER_0_29_337
*931 FILLER_0_29_349
*932 FILLER_0_29_39
*933 FILLER_0_29_51
*934 FILLER_0_29_55
*935 FILLER_0_29_57
*936 FILLER_0_29_69
*937 FILLER_0_29_81
*938 FILLER_0_29_93
*939 FILLER_0_2_109
*940 FILLER_0_2_121
*941 FILLER_0_2_133
*942 FILLER_0_2_139
*943 FILLER_0_2_141
*944 FILLER_0_2_15
*945 FILLER_0_2_153
*946 FILLER_0_2_165
*947 FILLER_0_2_177
*948 FILLER_0_2_189
*949 FILLER_0_2_195
*950 FILLER_0_2_197
*951 FILLER_0_2_209
*952 FILLER_0_2_221
*953 FILLER_0_2_233
*954 FILLER_0_2_245
*955 FILLER_0_2_251
*956 FILLER_0_2_253
*957 FILLER_0_2_265
*958 FILLER_0_2_27
*959 FILLER_0_2_277
*960 FILLER_0_2_289
*961 FILLER_0_2_29
*962 FILLER_0_2_3
*963 FILLER_0_2_301
*964 FILLER_0_2_307
*965 FILLER_0_2_309
*966 FILLER_0_2_321
*967 FILLER_0_2_333
*968 FILLER_0_2_345
*969 FILLER_0_2_41
*970 FILLER_0_2_53
*971 FILLER_0_2_65
*972 FILLER_0_2_77
*973 FILLER_0_2_83
*974 FILLER_0_2_85
*975 FILLER_0_2_97
*976 FILLER_0_30_109
*977 FILLER_0_30_121
*978 FILLER_0_30_133
*979 FILLER_0_30_139
*980 FILLER_0_30_141
*981 FILLER_0_30_15
*982 FILLER_0_30_153
*983 FILLER_0_30_165
*984 FILLER_0_30_177
*985 FILLER_0_30_189
*986 FILLER_0_30_195
*987 FILLER_0_30_197
*988 FILLER_0_30_209
*989 FILLER_0_30_221
*990 FILLER_0_30_233
*991 FILLER_0_30_245
*992 FILLER_0_30_251
*993 FILLER_0_30_253
*994 FILLER_0_30_265
*995 FILLER_0_30_27
*996 FILLER_0_30_277
*997 FILLER_0_30_289
*998 FILLER_0_30_29
*999 FILLER_0_30_3
*1000 FILLER_0_30_301
*1001 FILLER_0_30_307
*1002 FILLER_0_30_309
*1003 FILLER_0_30_321
*1004 FILLER_0_30_333
*1005 FILLER_0_30_345
*1006 FILLER_0_30_41
*1007 FILLER_0_30_53
*1008 FILLER_0_30_65
*1009 FILLER_0_30_77
*1010 FILLER_0_30_83
*1011 FILLER_0_30_85
*1012 FILLER_0_30_97
*1013 FILLER_0_31_105
*1014 FILLER_0_31_111
*1015 FILLER_0_31_113
*1016 FILLER_0_31_125
*1017 FILLER_0_31_137
*1018 FILLER_0_31_149
*1019 FILLER_0_31_15
*1020 FILLER_0_31_161
*1021 FILLER_0_31_167
*1022 FILLER_0_31_169
*1023 FILLER_0_31_181
*1024 FILLER_0_31_193
*1025 FILLER_0_31_205
*1026 FILLER_0_31_217
*1027 FILLER_0_31_223
*1028 FILLER_0_31_225
*1029 FILLER_0_31_237
*1030 FILLER_0_31_249
*1031 FILLER_0_31_261
*1032 FILLER_0_31_27
*1033 FILLER_0_31_273
*1034 FILLER_0_31_279
*1035 FILLER_0_31_281
*1036 FILLER_0_31_293
*1037 FILLER_0_31_3
*1038 FILLER_0_31_305
*1039 FILLER_0_31_317
*1040 FILLER_0_31_329
*1041 FILLER_0_31_335
*1042 FILLER_0_31_337
*1043 FILLER_0_31_349
*1044 FILLER_0_31_39
*1045 FILLER_0_31_51
*1046 FILLER_0_31_55
*1047 FILLER_0_31_57
*1048 FILLER_0_31_69
*1049 FILLER_0_31_81
*1050 FILLER_0_31_93
*1051 FILLER_0_32_109
*1052 FILLER_0_32_121
*1053 FILLER_0_32_133
*1054 FILLER_0_32_139
*1055 FILLER_0_32_141
*1056 FILLER_0_32_147
*1057 FILLER_0_32_15
*1058 FILLER_0_32_156
*1059 FILLER_0_32_168
*1060 FILLER_0_32_176
*1061 FILLER_0_32_183
*1062 FILLER_0_32_195
*1063 FILLER_0_32_197
*1064 FILLER_0_32_209
*1065 FILLER_0_32_221
*1066 FILLER_0_32_233
*1067 FILLER_0_32_245
*1068 FILLER_0_32_251
*1069 FILLER_0_32_253
*1070 FILLER_0_32_265
*1071 FILLER_0_32_27
*1072 FILLER_0_32_277
*1073 FILLER_0_32_289
*1074 FILLER_0_32_29
*1075 FILLER_0_32_3
*1076 FILLER_0_32_301
*1077 FILLER_0_32_307
*1078 FILLER_0_32_309
*1079 FILLER_0_32_321
*1080 FILLER_0_32_333
*1081 FILLER_0_32_345
*1082 FILLER_0_32_41
*1083 FILLER_0_32_53
*1084 FILLER_0_32_65
*1085 FILLER_0_32_77
*1086 FILLER_0_32_83
*1087 FILLER_0_32_85
*1088 FILLER_0_32_97
*1089 FILLER_0_33_105
*1090 FILLER_0_33_111
*1091 FILLER_0_33_113
*1092 FILLER_0_33_125
*1093 FILLER_0_33_129
*1094 FILLER_0_33_137
*1095 FILLER_0_33_15
*1096 FILLER_0_33_165
*1097 FILLER_0_33_169
*1098 FILLER_0_33_178
*1099 FILLER_0_33_199
*1100 FILLER_0_33_211
*1101 FILLER_0_33_223
*1102 FILLER_0_33_225
*1103 FILLER_0_33_237
*1104 FILLER_0_33_249
*1105 FILLER_0_33_261
*1106 FILLER_0_33_27
*1107 FILLER_0_33_273
*1108 FILLER_0_33_279
*1109 FILLER_0_33_281
*1110 FILLER_0_33_293
*1111 FILLER_0_33_3
*1112 FILLER_0_33_305
*1113 FILLER_0_33_317
*1114 FILLER_0_33_329
*1115 FILLER_0_33_335
*1116 FILLER_0_33_337
*1117 FILLER_0_33_349
*1118 FILLER_0_33_39
*1119 FILLER_0_33_51
*1120 FILLER_0_33_55
*1121 FILLER_0_33_57
*1122 FILLER_0_33_69
*1123 FILLER_0_33_81
*1124 FILLER_0_33_93
*1125 FILLER_0_34_109
*1126 FILLER_0_34_121
*1127 FILLER_0_34_127
*1128 FILLER_0_34_141
*1129 FILLER_0_34_147
*1130 FILLER_0_34_15
*1131 FILLER_0_34_168
*1132 FILLER_0_34_191
*1133 FILLER_0_34_195
*1134 FILLER_0_34_205
*1135 FILLER_0_34_228
*1136 FILLER_0_34_251
*1137 FILLER_0_34_253
*1138 FILLER_0_34_265
*1139 FILLER_0_34_27
*1140 FILLER_0_34_277
*1141 FILLER_0_34_289
*1142 FILLER_0_34_29
*1143 FILLER_0_34_3
*1144 FILLER_0_34_301
*1145 FILLER_0_34_307
*1146 FILLER_0_34_309
*1147 FILLER_0_34_321
*1148 FILLER_0_34_333
*1149 FILLER_0_34_345
*1150 FILLER_0_34_41
*1151 FILLER_0_34_53
*1152 FILLER_0_34_65
*1153 FILLER_0_34_77
*1154 FILLER_0_34_83
*1155 FILLER_0_34_85
*1156 FILLER_0_34_97
*1157 FILLER_0_35_105
*1158 FILLER_0_35_111
*1159 FILLER_0_35_113
*1160 FILLER_0_35_139
*1161 FILLER_0_35_15
*1162 FILLER_0_35_163
*1163 FILLER_0_35_167
*1164 FILLER_0_35_169
*1165 FILLER_0_35_181
*1166 FILLER_0_35_205
*1167 FILLER_0_35_215
*1168 FILLER_0_35_223
*1169 FILLER_0_35_225
*1170 FILLER_0_35_246
*1171 FILLER_0_35_258
*1172 FILLER_0_35_27
*1173 FILLER_0_35_270
*1174 FILLER_0_35_278
*1175 FILLER_0_35_281
*1176 FILLER_0_35_293
*1177 FILLER_0_35_3
*1178 FILLER_0_35_305
*1179 FILLER_0_35_317
*1180 FILLER_0_35_329
*1181 FILLER_0_35_335
*1182 FILLER_0_35_337
*1183 FILLER_0_35_349
*1184 FILLER_0_35_39
*1185 FILLER_0_35_51
*1186 FILLER_0_35_55
*1187 FILLER_0_35_57
*1188 FILLER_0_35_69
*1189 FILLER_0_35_81
*1190 FILLER_0_35_93
*1191 FILLER_0_36_109
*1192 FILLER_0_36_115
*1193 FILLER_0_36_121
*1194 FILLER_0_36_133
*1195 FILLER_0_36_139
*1196 FILLER_0_36_141
*1197 FILLER_0_36_15
*1198 FILLER_0_36_160
*1199 FILLER_0_36_175
*1200 FILLER_0_36_188
*1201 FILLER_0_36_197
*1202 FILLER_0_36_205
*1203 FILLER_0_36_216
*1204 FILLER_0_36_251
*1205 FILLER_0_36_261
*1206 FILLER_0_36_27
*1207 FILLER_0_36_271
*1208 FILLER_0_36_283
*1209 FILLER_0_36_29
*1210 FILLER_0_36_295
*1211 FILLER_0_36_3
*1212 FILLER_0_36_307
*1213 FILLER_0_36_309
*1214 FILLER_0_36_321
*1215 FILLER_0_36_333
*1216 FILLER_0_36_345
*1217 FILLER_0_36_41
*1218 FILLER_0_36_53
*1219 FILLER_0_36_65
*1220 FILLER_0_36_77
*1221 FILLER_0_36_83
*1222 FILLER_0_36_85
*1223 FILLER_0_36_97
*1224 FILLER_0_37_105
*1225 FILLER_0_37_113
*1226 FILLER_0_37_131
*1227 FILLER_0_37_142
*1228 FILLER_0_37_148
*1229 FILLER_0_37_15
*1230 FILLER_0_37_163
*1231 FILLER_0_37_167
*1232 FILLER_0_37_183
*1233 FILLER_0_37_191
*1234 FILLER_0_37_200
*1235 FILLER_0_37_208
*1236 FILLER_0_37_212
*1237 FILLER_0_37_220
*1238 FILLER_0_37_225
*1239 FILLER_0_37_238
*1240 FILLER_0_37_263
*1241 FILLER_0_37_27
*1242 FILLER_0_37_275
*1243 FILLER_0_37_279
*1244 FILLER_0_37_281
*1245 FILLER_0_37_298
*1246 FILLER_0_37_3
*1247 FILLER_0_37_302
*1248 FILLER_0_37_314
*1249 FILLER_0_37_326
*1250 FILLER_0_37_334
*1251 FILLER_0_37_337
*1252 FILLER_0_37_349
*1253 FILLER_0_37_39
*1254 FILLER_0_37_51
*1255 FILLER_0_37_55
*1256 FILLER_0_37_57
*1257 FILLER_0_37_69
*1258 FILLER_0_37_81
*1259 FILLER_0_37_93
*1260 FILLER_0_38_102
*1261 FILLER_0_38_107
*1262 FILLER_0_38_111
*1263 FILLER_0_38_127
*1264 FILLER_0_38_15
*1265 FILLER_0_38_159
*1266 FILLER_0_38_165
*1267 FILLER_0_38_169
*1268 FILLER_0_38_184
*1269 FILLER_0_38_188
*1270 FILLER_0_38_195
*1271 FILLER_0_38_266
*1272 FILLER_0_38_27
*1273 FILLER_0_38_278
*1274 FILLER_0_38_281
*1275 FILLER_0_38_29
*1276 FILLER_0_38_3
*1277 FILLER_0_38_305
*1278 FILLER_0_38_312
*1279 FILLER_0_38_324
*1280 FILLER_0_38_337
*1281 FILLER_0_38_349
*1282 FILLER_0_38_41
*1283 FILLER_0_38_53
*1284 FILLER_0_38_57
*1285 FILLER_0_38_65
*1286 FILLER_0_38_79
*1287 FILLER_0_38_85
*1288 FILLER_0_38_90
*1289 FILLER_0_38_96
*1290 FILLER_0_3_105
*1291 FILLER_0_3_111
*1292 FILLER_0_3_113
*1293 FILLER_0_3_125
*1294 FILLER_0_3_137
*1295 FILLER_0_3_149
*1296 FILLER_0_3_15
*1297 FILLER_0_3_161
*1298 FILLER_0_3_167
*1299 FILLER_0_3_169
*1300 FILLER_0_3_181
*1301 FILLER_0_3_193
*1302 FILLER_0_3_205
*1303 FILLER_0_3_217
*1304 FILLER_0_3_223
*1305 FILLER_0_3_225
*1306 FILLER_0_3_237
*1307 FILLER_0_3_249
*1308 FILLER_0_3_261
*1309 FILLER_0_3_27
*1310 FILLER_0_3_273
*1311 FILLER_0_3_279
*1312 FILLER_0_3_281
*1313 FILLER_0_3_293
*1314 FILLER_0_3_3
*1315 FILLER_0_3_305
*1316 FILLER_0_3_317
*1317 FILLER_0_3_329
*1318 FILLER_0_3_335
*1319 FILLER_0_3_337
*1320 FILLER_0_3_349
*1321 FILLER_0_3_39
*1322 FILLER_0_3_51
*1323 FILLER_0_3_55
*1324 FILLER_0_3_57
*1325 FILLER_0_3_69
*1326 FILLER_0_3_81
*1327 FILLER_0_3_93
*1328 FILLER_0_4_109
*1329 FILLER_0_4_121
*1330 FILLER_0_4_133
*1331 FILLER_0_4_139
*1332 FILLER_0_4_141
*1333 FILLER_0_4_15
*1334 FILLER_0_4_153
*1335 FILLER_0_4_165
*1336 FILLER_0_4_177
*1337 FILLER_0_4_189
*1338 FILLER_0_4_195
*1339 FILLER_0_4_197
*1340 FILLER_0_4_209
*1341 FILLER_0_4_221
*1342 FILLER_0_4_233
*1343 FILLER_0_4_245
*1344 FILLER_0_4_251
*1345 FILLER_0_4_253
*1346 FILLER_0_4_265
*1347 FILLER_0_4_27
*1348 FILLER_0_4_277
*1349 FILLER_0_4_289
*1350 FILLER_0_4_29
*1351 FILLER_0_4_3
*1352 FILLER_0_4_301
*1353 FILLER_0_4_307
*1354 FILLER_0_4_309
*1355 FILLER_0_4_321
*1356 FILLER_0_4_333
*1357 FILLER_0_4_345
*1358 FILLER_0_4_41
*1359 FILLER_0_4_53
*1360 FILLER_0_4_65
*1361 FILLER_0_4_77
*1362 FILLER_0_4_83
*1363 FILLER_0_4_85
*1364 FILLER_0_4_97
*1365 FILLER_0_5_105
*1366 FILLER_0_5_111
*1367 FILLER_0_5_113
*1368 FILLER_0_5_125
*1369 FILLER_0_5_137
*1370 FILLER_0_5_149
*1371 FILLER_0_5_15
*1372 FILLER_0_5_161
*1373 FILLER_0_5_167
*1374 FILLER_0_5_169
*1375 FILLER_0_5_181
*1376 FILLER_0_5_193
*1377 FILLER_0_5_205
*1378 FILLER_0_5_217
*1379 FILLER_0_5_223
*1380 FILLER_0_5_225
*1381 FILLER_0_5_237
*1382 FILLER_0_5_249
*1383 FILLER_0_5_261
*1384 FILLER_0_5_27
*1385 FILLER_0_5_273
*1386 FILLER_0_5_279
*1387 FILLER_0_5_281
*1388 FILLER_0_5_293
*1389 FILLER_0_5_3
*1390 FILLER_0_5_305
*1391 FILLER_0_5_317
*1392 FILLER_0_5_329
*1393 FILLER_0_5_335
*1394 FILLER_0_5_337
*1395 FILLER_0_5_349
*1396 FILLER_0_5_39
*1397 FILLER_0_5_51
*1398 FILLER_0_5_55
*1399 FILLER_0_5_57
*1400 FILLER_0_5_69
*1401 FILLER_0_5_81
*1402 FILLER_0_5_93
*1403 FILLER_0_6_109
*1404 FILLER_0_6_121
*1405 FILLER_0_6_133
*1406 FILLER_0_6_139
*1407 FILLER_0_6_141
*1408 FILLER_0_6_15
*1409 FILLER_0_6_153
*1410 FILLER_0_6_165
*1411 FILLER_0_6_177
*1412 FILLER_0_6_189
*1413 FILLER_0_6_195
*1414 FILLER_0_6_197
*1415 FILLER_0_6_209
*1416 FILLER_0_6_221
*1417 FILLER_0_6_233
*1418 FILLER_0_6_245
*1419 FILLER_0_6_251
*1420 FILLER_0_6_253
*1421 FILLER_0_6_265
*1422 FILLER_0_6_27
*1423 FILLER_0_6_277
*1424 FILLER_0_6_289
*1425 FILLER_0_6_29
*1426 FILLER_0_6_3
*1427 FILLER_0_6_301
*1428 FILLER_0_6_307
*1429 FILLER_0_6_309
*1430 FILLER_0_6_321
*1431 FILLER_0_6_333
*1432 FILLER_0_6_345
*1433 FILLER_0_6_41
*1434 FILLER_0_6_53
*1435 FILLER_0_6_65
*1436 FILLER_0_6_77
*1437 FILLER_0_6_83
*1438 FILLER_0_6_85
*1439 FILLER_0_6_97
*1440 FILLER_0_7_105
*1441 FILLER_0_7_111
*1442 FILLER_0_7_113
*1443 FILLER_0_7_125
*1444 FILLER_0_7_137
*1445 FILLER_0_7_149
*1446 FILLER_0_7_15
*1447 FILLER_0_7_161
*1448 FILLER_0_7_167
*1449 FILLER_0_7_169
*1450 FILLER_0_7_181
*1451 FILLER_0_7_193
*1452 FILLER_0_7_205
*1453 FILLER_0_7_217
*1454 FILLER_0_7_223
*1455 FILLER_0_7_225
*1456 FILLER_0_7_237
*1457 FILLER_0_7_249
*1458 FILLER_0_7_261
*1459 FILLER_0_7_27
*1460 FILLER_0_7_273
*1461 FILLER_0_7_279
*1462 FILLER_0_7_281
*1463 FILLER_0_7_293
*1464 FILLER_0_7_3
*1465 FILLER_0_7_305
*1466 FILLER_0_7_317
*1467 FILLER_0_7_329
*1468 FILLER_0_7_335
*1469 FILLER_0_7_337
*1470 FILLER_0_7_349
*1471 FILLER_0_7_39
*1472 FILLER_0_7_51
*1473 FILLER_0_7_55
*1474 FILLER_0_7_57
*1475 FILLER_0_7_69