*SPEF "ieee 1481-1999"
*DESIGN "tt_um_factory_test"
*DATE "11:11:11 Fri 11 11, 1111"
*VENDOR "OpenRCX"
*PROGRAM "Parallel Extraction"
*VERSION "1.0"
*DESIGN_FLOW "NAME_SCOPE LOCAL" "PIN_CAP NONE"
*DIVIDER /
*DELIMITER :
*BUS_DELIMITER []
*T_UNIT 1 NS
*C_UNIT 1 PF
*R_UNIT 1 OHM
*L_UNIT 1 HENRY

*NAME_MAP
*3 clk
*4 ena
*5 rst_n
*6 ui_in[0]
*7 ui_in[1]
*8 ui_in[2]
*9 ui_in[3]
*10 ui_in[4]
*11 ui_in[5]
*12 ui_in[6]
*13 ui_in[7]
*14 uio_in[0]
*15 uio_in[1]
*16 uio_in[2]
*17 uio_in[3]
*18 uio_in[4]
*19 uio_in[5]
*20 uio_in[6]
*21 uio_in[7]
*22 uio_oe[0]
*23 uio_oe[1]
*24 uio_oe[2]
*25 uio_oe[3]
*26 uio_oe[4]
*27 uio_oe[5]
*28 uio_oe[6]
*29 uio_oe[7]
*30 uio_out[0]
*31 uio_out[1]
*32 uio_out[2]
*33 uio_out[3]
*34 uio_out[4]
*35 uio_out[5]
*36 uio_out[6]
*37 uio_out[7]
*38 uo_out[0]
*39 uo_out[1]
*40 uo_out[2]
*41 uo_out[3]
*42 uo_out[4]
*43 uo_out[5]
*44 uo_out[6]
*45 uo_out[7]
*46 _000_
*47 _001_
*48 _002_
*49 _003_
*50 _004_
*51 _005_
*52 _006_
*53 _007_
*54 _008_
*55 _009_
*56 _010_
*57 _011_
*58 _012_
*59 _013_
*60 _014_
*61 _015_
*62 _016_
*63 _017_
*64 _018_
*65 _019_
*66 _020_
*67 _021_
*68 _022_
*69 _023_
*70 _024_
*71 _025_
*72 _026_
*73 _027_
*74 _028_
*75 _029_
*76 _030_
*77 _031_
*78 _032_
*79 _033_
*80 _034_
*81 clknet_0_clk
*82 clknet_1_0__leaf_clk
*83 clknet_1_1__leaf_clk
*84 cnt\[0\]
*85 cnt\[1\]
*86 cnt\[2\]
*87 cnt\[3\]
*88 cnt\[4\]
*89 cnt\[5\]
*90 cnt\[6\]
*91 cnt\[7\]
*92 net1
*93 net10
*94 net11
*95 net12
*96 net13
*97 net14
*98 net15
*99 net16
*100 net17
*101 net18
*102 net19
*103 net2
*104 net20
*105 net21
*106 net3
*107 net4
*108 net5
*109 net6
*110 net7
*111 net8
*112 net9
*113 rst_n_i
*114 FILLER_0_0_109
*115 FILLER_0_0_113
*116 FILLER_0_0_125
*117 FILLER_0_0_137
*118 FILLER_0_0_141
*119 FILLER_0_0_15
*120 FILLER_0_0_153
*121 FILLER_0_0_165
*122 FILLER_0_0_169
*123 FILLER_0_0_181
*124 FILLER_0_0_193
*125 FILLER_0_0_197
*126 FILLER_0_0_209
*127 FILLER_0_0_221
*128 FILLER_0_0_225
*129 FILLER_0_0_237
*130 FILLER_0_0_249
*131 FILLER_0_0_253
*132 FILLER_0_0_265
*133 FILLER_0_0_27
*134 FILLER_0_0_277
*135 FILLER_0_0_281
*136 FILLER_0_0_29
*137 FILLER_0_0_293
*138 FILLER_0_0_3
*139 FILLER_0_0_305
*140 FILLER_0_0_309
*141 FILLER_0_0_321
*142 FILLER_0_0_333
*143 FILLER_0_0_41
*144 FILLER_0_0_53
*145 FILLER_0_0_57
*146 FILLER_0_0_69
*147 FILLER_0_0_81
*148 FILLER_0_0_85
*149 FILLER_0_0_97
*150 FILLER_0_10_109
*151 FILLER_0_10_121
*152 FILLER_0_10_133
*153 FILLER_0_10_139
*154 FILLER_0_10_141
*155 FILLER_0_10_15
*156 FILLER_0_10_153
*157 FILLER_0_10_165
*158 FILLER_0_10_177
*159 FILLER_0_10_189
*160 FILLER_0_10_195
*161 FILLER_0_10_197
*162 FILLER_0_10_209
*163 FILLER_0_10_221
*164 FILLER_0_10_233
*165 FILLER_0_10_245
*166 FILLER_0_10_251
*167 FILLER_0_10_253
*168 FILLER_0_10_265
*169 FILLER_0_10_27
*170 FILLER_0_10_277
*171 FILLER_0_10_289
*172 FILLER_0_10_29
*173 FILLER_0_10_3
*174 FILLER_0_10_301
*175 FILLER_0_10_307
*176 FILLER_0_10_309
*177 FILLER_0_10_321
*178 FILLER_0_10_333
*179 FILLER_0_10_41
*180 FILLER_0_10_53
*181 FILLER_0_10_65
*182 FILLER_0_10_77
*183 FILLER_0_10_83
*184 FILLER_0_10_85
*185 FILLER_0_10_97
*186 FILLER_0_11_105
*187 FILLER_0_11_111
*188 FILLER_0_11_113
*189 FILLER_0_11_125
*190 FILLER_0_11_137
*191 FILLER_0_11_149
*192 FILLER_0_11_15
*193 FILLER_0_11_161
*194 FILLER_0_11_167
*195 FILLER_0_11_169
*196 FILLER_0_11_181
*197 FILLER_0_11_193
*198 FILLER_0_11_205
*199 FILLER_0_11_217
*200 FILLER_0_11_223
*201 FILLER_0_11_225
*202 FILLER_0_11_237
*203 FILLER_0_11_249
*204 FILLER_0_11_261
*205 FILLER_0_11_27
*206 FILLER_0_11_273
*207 FILLER_0_11_279
*208 FILLER_0_11_281
*209 FILLER_0_11_293
*210 FILLER_0_11_3
*211 FILLER_0_11_305
*212 FILLER_0_11_317
*213 FILLER_0_11_329
*214 FILLER_0_11_39
*215 FILLER_0_11_51
*216 FILLER_0_11_55
*217 FILLER_0_11_57
*218 FILLER_0_11_69
*219 FILLER_0_11_81
*220 FILLER_0_11_93
*221 FILLER_0_12_109
*222 FILLER_0_12_121
*223 FILLER_0_12_133
*224 FILLER_0_12_139
*225 FILLER_0_12_141
*226 FILLER_0_12_15
*227 FILLER_0_12_153
*228 FILLER_0_12_165
*229 FILLER_0_12_177
*230 FILLER_0_12_189
*231 FILLER_0_12_195
*232 FILLER_0_12_197
*233 FILLER_0_12_209
*234 FILLER_0_12_221
*235 FILLER_0_12_233
*236 FILLER_0_12_245
*237 FILLER_0_12_251
*238 FILLER_0_12_253
*239 FILLER_0_12_265
*240 FILLER_0_12_27
*241 FILLER_0_12_277
*242 FILLER_0_12_289
*243 FILLER_0_12_29
*244 FILLER_0_12_3
*245 FILLER_0_12_301
*246 FILLER_0_12_307
*247 FILLER_0_12_309
*248 FILLER_0_12_321
*249 FILLER_0_12_333
*250 FILLER_0_12_41
*251 FILLER_0_12_53
*252 FILLER_0_12_65
*253 FILLER_0_12_77
*254 FILLER_0_12_83
*255 FILLER_0_12_85
*256 FILLER_0_12_97
*257 FILLER_0_13_105
*258 FILLER_0_13_111
*259 FILLER_0_13_113
*260 FILLER_0_13_125
*261 FILLER_0_13_137
*262 FILLER_0_13_149
*263 FILLER_0_13_15
*264 FILLER_0_13_161
*265 FILLER_0_13_167
*266 FILLER_0_13_169
*267 FILLER_0_13_181
*268 FILLER_0_13_193
*269 FILLER_0_13_205
*270 FILLER_0_13_217
*271 FILLER_0_13_223
*272 FILLER_0_13_225
*273 FILLER_0_13_237
*274 FILLER_0_13_249
*275 FILLER_0_13_261
*276 FILLER_0_13_27
*277 FILLER_0_13_273
*278 FILLER_0_13_279
*279 FILLER_0_13_281
*280 FILLER_0_13_293
*281 FILLER_0_13_3
*282 FILLER_0_13_305
*283 FILLER_0_13_317
*284 FILLER_0_13_329
*285 FILLER_0_13_39
*286 FILLER_0_13_51
*287 FILLER_0_13_55
*288 FILLER_0_13_57
*289 FILLER_0_13_69
*290 FILLER_0_13_81
*291 FILLER_0_13_93
*292 FILLER_0_14_109
*293 FILLER_0_14_121
*294 FILLER_0_14_133
*295 FILLER_0_14_139
*296 FILLER_0_14_141
*297 FILLER_0_14_15
*298 FILLER_0_14_153
*299 FILLER_0_14_165
*300 FILLER_0_14_177
*301 FILLER_0_14_189
*302 FILLER_0_14_195
*303 FILLER_0_14_197
*304 FILLER_0_14_209
*305 FILLER_0_14_221
*306 FILLER_0_14_233
*307 FILLER_0_14_245
*308 FILLER_0_14_251
*309 FILLER_0_14_253
*310 FILLER_0_14_265
*311 FILLER_0_14_27
*312 FILLER_0_14_277
*313 FILLER_0_14_289
*314 FILLER_0_14_29
*315 FILLER_0_14_3
*316 FILLER_0_14_301
*317 FILLER_0_14_307
*318 FILLER_0_14_309
*319 FILLER_0_14_321
*320 FILLER_0_14_333
*321 FILLER_0_14_41
*322 FILLER_0_14_53
*323 FILLER_0_14_65
*324 FILLER_0_14_77
*325 FILLER_0_14_83
*326 FILLER_0_14_85
*327 FILLER_0_14_97
*328 FILLER_0_15_105
*329 FILLER_0_15_111
*330 FILLER_0_15_113
*331 FILLER_0_15_125
*332 FILLER_0_15_137
*333 FILLER_0_15_149
*334 FILLER_0_15_15
*335 FILLER_0_15_161
*336 FILLER_0_15_167
*337 FILLER_0_15_169
*338 FILLER_0_15_181
*339 FILLER_0_15_193
*340 FILLER_0_15_205
*341 FILLER_0_15_217
*342 FILLER_0_15_223
*343 FILLER_0_15_225
*344 FILLER_0_15_237
*345 FILLER_0_15_249
*346 FILLER_0_15_261
*347 FILLER_0_15_27
*348 FILLER_0_15_273
*349 FILLER_0_15_279
*350 FILLER_0_15_281
*351 FILLER_0_15_293
*352 FILLER_0_15_3
*353 FILLER_0_15_305
*354 FILLER_0_15_317
*355 FILLER_0_15_329
*356 FILLER_0_15_39
*357 FILLER_0_15_51
*358 FILLER_0_15_55
*359 FILLER_0_15_57
*360 FILLER_0_15_69
*361 FILLER_0_15_81
*362 FILLER_0_15_93
*363 FILLER_0_16_109
*364 FILLER_0_16_121
*365 FILLER_0_16_133
*366 FILLER_0_16_139
*367 FILLER_0_16_141
*368 FILLER_0_16_15
*369 FILLER_0_16_153
*370 FILLER_0_16_165
*371 FILLER_0_16_177
*372 FILLER_0_16_189
*373 FILLER_0_16_195
*374 FILLER_0_16_197
*375 FILLER_0_16_209
*376 FILLER_0_16_221
*377 FILLER_0_16_233
*378 FILLER_0_16_245
*379 FILLER_0_16_251
*380 FILLER_0_16_253
*381 FILLER_0_16_265
*382 FILLER_0_16_27
*383 FILLER_0_16_277
*384 FILLER_0_16_289
*385 FILLER_0_16_29
*386 FILLER_0_16_3
*387 FILLER_0_16_301
*388 FILLER_0_16_307
*389 FILLER_0_16_309
*390 FILLER_0_16_321
*391 FILLER_0_16_333
*392 FILLER_0_16_41
*393 FILLER_0_16_53
*394 FILLER_0_16_65
*395 FILLER_0_16_77
*396 FILLER_0_16_83
*397 FILLER_0_16_85
*398 FILLER_0_16_97
*399 FILLER_0_17_105
*400 FILLER_0_17_111
*401 FILLER_0_17_113
*402 FILLER_0_17_125
*403 FILLER_0_17_137
*404 FILLER_0_17_149
*405 FILLER_0_17_15
*406 FILLER_0_17_161
*407 FILLER_0_17_167
*408 FILLER_0_17_169
*409 FILLER_0_17_181
*410 FILLER_0_17_193
*411 FILLER_0_17_205
*412 FILLER_0_17_217
*413 FILLER_0_17_223
*414 FILLER_0_17_225
*415 FILLER_0_17_237
*416 FILLER_0_17_249
*417 FILLER_0_17_261
*418 FILLER_0_17_27
*419 FILLER_0_17_273
*420 FILLER_0_17_279
*421 FILLER_0_17_281
*422 FILLER_0_17_293
*423 FILLER_0_17_3
*424 FILLER_0_17_305
*425 FILLER_0_17_317
*426 FILLER_0_17_329
*427 FILLER_0_17_39
*428 FILLER_0_17_51
*429 FILLER_0_17_55
*430 FILLER_0_17_57
*431 FILLER_0_17_69
*432 FILLER_0_17_81
*433 FILLER_0_17_93
*434 FILLER_0_18_109
*435 FILLER_0_18_121
*436 FILLER_0_18_133
*437 FILLER_0_18_139
*438 FILLER_0_18_141
*439 FILLER_0_18_15
*440 FILLER_0_18_153
*441 FILLER_0_18_165
*442 FILLER_0_18_177
*443 FILLER_0_18_189
*444 FILLER_0_18_195
*445 FILLER_0_18_197
*446 FILLER_0_18_209
*447 FILLER_0_18_221
*448 FILLER_0_18_233
*449 FILLER_0_18_245
*450 FILLER_0_18_251
*451 FILLER_0_18_253
*452 FILLER_0_18_265
*453 FILLER_0_18_27
*454 FILLER_0_18_277
*455 FILLER_0_18_289
*456 FILLER_0_18_29
*457 FILLER_0_18_3
*458 FILLER_0_18_301
*459 FILLER_0_18_307
*460 FILLER_0_18_309
*461 FILLER_0_18_321
*462 FILLER_0_18_333
*463 FILLER_0_18_41
*464 FILLER_0_18_53
*465 FILLER_0_18_65
*466 FILLER_0_18_77
*467 FILLER_0_18_83
*468 FILLER_0_18_85
*469 FILLER_0_18_97
*470 FILLER_0_19_105
*471 FILLER_0_19_111
*472 FILLER_0_19_113
*473 FILLER_0_19_125
*474 FILLER_0_19_137
*475 FILLER_0_19_149
*476 FILLER_0_19_15
*477 FILLER_0_19_161
*478 FILLER_0_19_167
*479 FILLER_0_19_169
*480 FILLER_0_19_181
*481 FILLER_0_19_193
*482 FILLER_0_19_205
*483 FILLER_0_19_217
*484 FILLER_0_19_223
*485 FILLER_0_19_225
*486 FILLER_0_19_237
*487 FILLER_0_19_249
*488 FILLER_0_19_261
*489 FILLER_0_19_27
*490 FILLER_0_19_273
*491 FILLER_0_19_279
*492 FILLER_0_19_281
*493 FILLER_0_19_293
*494 FILLER_0_19_3
*495 FILLER_0_19_305
*496 FILLER_0_19_317
*497 FILLER_0_19_329
*498 FILLER_0_19_39
*499 FILLER_0_19_51
*500 FILLER_0_19_55
*501 FILLER_0_19_57
*502 FILLER_0_19_69
*503 FILLER_0_19_81
*504 FILLER_0_19_93
*505 FILLER_0_1_105
*506 FILLER_0_1_111
*507 FILLER_0_1_113
*508 FILLER_0_1_125
*509 FILLER_0_1_137
*510 FILLER_0_1_149
*511 FILLER_0_1_15
*512 FILLER_0_1_161
*513 FILLER_0_1_167
*514 FILLER_0_1_169
*515 FILLER_0_1_181
*516 FILLER_0_1_193
*517 FILLER_0_1_205
*518 FILLER_0_1_217
*519 FILLER_0_1_223
*520 FILLER_0_1_225
*521 FILLER_0_1_237
*522 FILLER_0_1_249
*523 FILLER_0_1_261
*524 FILLER_0_1_27
*525 FILLER_0_1_273
*526 FILLER_0_1_279
*527 FILLER_0_1_281
*528 FILLER_0_1_293
*529 FILLER_0_1_3
*530 FILLER_0_1_305
*531 FILLER_0_1_317
*532 FILLER_0_1_329
*533 FILLER_0_1_39
*534 FILLER_0_1_51
*535 FILLER_0_1_55
*536 FILLER_0_1_57
*537 FILLER_0_1_69
*538 FILLER_0_1_81
*539 FILLER_0_1_93
*540 FILLER_0_20_109
*541 FILLER_0_20_121
*542 FILLER_0_20_133
*543 FILLER_0_20_139
*544 FILLER_0_20_141
*545 FILLER_0_20_15
*546 FILLER_0_20_153
*547 FILLER_0_20_165
*548 FILLER_0_20_177
*549 FILLER_0_20_189
*550 FILLER_0_20_195
*551 FILLER_0_20_197
*552 FILLER_0_20_209
*553 FILLER_0_20_221
*554 FILLER_0_20_233
*555 FILLER_0_20_245
*556 FILLER_0_20_251
*557 FILLER_0_20_253
*558 FILLER_0_20_265
*559 FILLER_0_20_27
*560 FILLER_0_20_277
*561 FILLER_0_20_289
*562 FILLER_0_20_29
*563 FILLER_0_20_3
*564 FILLER_0_20_301
*565 FILLER_0_20_307
*566 FILLER_0_20_309
*567 FILLER_0_20_321
*568 FILLER_0_20_333
*569 FILLER_0_20_41
*570 FILLER_0_20_53
*571 FILLER_0_20_65
*572 FILLER_0_20_77
*573 FILLER_0_20_83
*574 FILLER_0_20_85
*575 FILLER_0_20_97
*576 FILLER_0_21_105
*577 FILLER_0_21_111
*578 FILLER_0_21_113
*579 FILLER_0_21_125
*580 FILLER_0_21_137
*581 FILLER_0_21_149
*582 FILLER_0_21_15
*583 FILLER_0_21_161
*584 FILLER_0_21_167
*585 FILLER_0_21_169
*586 FILLER_0_21_181
*587 FILLER_0_21_193
*588 FILLER_0_21_205
*589 FILLER_0_21_217
*590 FILLER_0_21_223
*591 FILLER_0_21_225
*592 FILLER_0_21_237
*593 FILLER_0_21_249
*594 FILLER_0_21_261
*595 FILLER_0_21_27
*596 FILLER_0_21_273
*597 FILLER_0_21_279
*598 FILLER_0_21_281
*599 FILLER_0_21_293
*600 FILLER_0_21_3
*601 FILLER_0_21_305
*602 FILLER_0_21_317
*603 FILLER_0_21_329
*604 FILLER_0_21_39
*605 FILLER_0_21_51
*606 FILLER_0_21_55
*607 FILLER_0_21_57
*608 FILLER_0_21_69
*609 FILLER_0_21_81
*610 FILLER_0_21_93
*611 FILLER_0_22_109
*612 FILLER_0_22_121
*613 FILLER_0_22_133
*614 FILLER_0_22_139
*615 FILLER_0_22_141
*616 FILLER_0_22_15
*617 FILLER_0_22_153
*618 FILLER_0_22_165
*619 FILLER_0_22_177
*620 FILLER_0_22_189
*621 FILLER_0_22_195
*622 FILLER_0_22_197
*623 FILLER_0_22_209
*624 FILLER_0_22_221
*625 FILLER_0_22_233
*626 FILLER_0_22_245
*627 FILLER_0_22_251
*628 FILLER_0_22_253
*629 FILLER_0_22_265
*630 FILLER_0_22_27
*631 FILLER_0_22_277
*632 FILLER_0_22_289
*633 FILLER_0_22_29
*634 FILLER_0_22_3
*635 FILLER_0_22_301
*636 FILLER_0_22_307
*637 FILLER_0_22_309
*638 FILLER_0_22_321
*639 FILLER_0_22_333
*640 FILLER_0_22_41
*641 FILLER_0_22_53
*642 FILLER_0_22_65
*643 FILLER_0_22_77
*644 FILLER_0_22_83
*645 FILLER_0_22_85
*646 FILLER_0_22_97
*647 FILLER_0_23_105
*648 FILLER_0_23_111
*649 FILLER_0_23_113
*650 FILLER_0_23_125
*651 FILLER_0_23_137
*652 FILLER_0_23_149
*653 FILLER_0_23_15
*654 FILLER_0_23_161
*655 FILLER_0_23_167
*656 FILLER_0_23_169
*657 FILLER_0_23_181
*658 FILLER_0_23_193
*659 FILLER_0_23_205
*660 FILLER_0_23_217
*661 FILLER_0_23_223
*662 FILLER_0_23_225
*663 FILLER_0_23_237
*664 FILLER_0_23_249
*665 FILLER_0_23_261
*666 FILLER_0_23_27
*667 FILLER_0_23_273
*668 FILLER_0_23_279
*669 FILLER_0_23_281
*670 FILLER_0_23_293
*671 FILLER_0_23_3
*672 FILLER_0_23_305
*673 FILLER_0_23_317
*674 FILLER_0_23_329
*675 FILLER_0_23_39
*676 FILLER_0_23_51
*677 FILLER_0_23_55
*678 FILLER_0_23_57
*679 FILLER_0_23_69
*680 FILLER_0_23_81
*681 FILLER_0_23_93
*682 FILLER_0_24_109
*683 FILLER_0_24_121
*684 FILLER_0_24_133
*685 FILLER_0_24_139
*686 FILLER_0_24_141
*687 FILLER_0_24_15
*688 FILLER_0_24_153
*689 FILLER_0_24_165
*690 FILLER_0_24_177
*691 FILLER_0_24_189
*692 FILLER_0_24_195
*693 FILLER_0_24_197
*694 FILLER_0_24_209
*695 FILLER_0_24_221
*696 FILLER_0_24_233
*697 FILLER_0_24_245
*698 FILLER_0_24_251
*699 FILLER_0_24_253
*700 FILLER_0_24_265
*701 FILLER_0_24_27
*702 FILLER_0_24_277
*703 FILLER_0_24_289
*704 FILLER_0_24_29
*705 FILLER_0_24_3
*706 FILLER_0_24_301
*707 FILLER_0_24_307
*708 FILLER_0_24_309
*709 FILLER_0_24_321
*710 FILLER_0_24_333
*711 FILLER_0_24_41
*712 FILLER_0_24_53
*713 FILLER_0_24_65
*714 FILLER_0_24_77
*715 FILLER_0_24_83
*716 FILLER_0_24_85
*717 FILLER_0_24_97
*718 FILLER_0_25_105
*719 FILLER_0_25_111
*720 FILLER_0_25_113
*721 FILLER_0_25_125
*722 FILLER_0_25_137
*723 FILLER_0_25_149
*724 FILLER_0_25_15
*725 FILLER_0_25_161
*726 FILLER_0_25_167
*727 FILLER_0_25_169
*728 FILLER_0_25_181
*729 FILLER_0_25_193
*730 FILLER_0_25_205
*731 FILLER_0_25_217
*732 FILLER_0_25_223
*733 FILLER_0_25_225
*734 FILLER_0_25_237
*735 FILLER_0_25_249
*736 FILLER_0_25_261
*737 FILLER_0_25_27
*738 FILLER_0_25_273
*739 FILLER_0_25_279
*740 FILLER_0_25_281
*741 FILLER_0_25_293
*742 FILLER_0_25_3
*743 FILLER_0_25_305
*744 FILLER_0_25_317
*745 FILLER_0_25_329
*746 FILLER_0_25_39
*747 FILLER_0_25_51
*748 FILLER_0_25_55
*749 FILLER_0_25_57
*750 FILLER_0_25_69
*751 FILLER_0_25_81
*752 FILLER_0_25_93
*753 FILLER_0_26_109
*754 FILLER_0_26_121
*755 FILLER_0_26_133
*756 FILLER_0_26_139
*757 FILLER_0_26_141
*758 FILLER_0_26_15
*759 FILLER_0_26_153
*760 FILLER_0_26_165
*761 FILLER_0_26_177
*762 FILLER_0_26_189
*763 FILLER_0_26_195
*764 FILLER_0_26_197
*765 FILLER_0_26_209
*766 FILLER_0_26_221
*767 FILLER_0_26_233
*768 FILLER_0_26_245
*769 FILLER_0_26_251
*770 FILLER_0_26_253
*771 FILLER_0_26_265
*772 FILLER_0_26_27
*773 FILLER_0_26_277
*774 FILLER_0_26_289
*775 FILLER_0_26_29
*776 FILLER_0_26_3
*777 FILLER_0_26_301
*778 FILLER_0_26_307
*779 FILLER_0_26_309
*780 FILLER_0_26_321
*781 FILLER_0_26_333
*782 FILLER_0_26_41
*783 FILLER_0_26_53
*784 FILLER_0_26_65
*785 FILLER_0_26_77
*786 FILLER_0_26_83
*787 FILLER_0_26_85
*788 FILLER_0_26_97
*789 FILLER_0_27_105
*790 FILLER_0_27_111
*791 FILLER_0_27_113
*792 FILLER_0_27_125
*793 FILLER_0_27_137
*794 FILLER_0_27_149
*795 FILLER_0_27_15
*796 FILLER_0_27_161
*797 FILLER_0_27_167
*798 FILLER_0_27_169
*799 FILLER_0_27_181
*800 FILLER_0_27_193
*801 FILLER_0_27_205
*802 FILLER_0_27_217
*803 FILLER_0_27_223
*804 FILLER_0_27_225
*805 FILLER_0_27_237
*806 FILLER_0_27_249
*807 FILLER_0_27_261
*808 FILLER_0_27_27
*809 FILLER_0_27_273
*810 FILLER_0_27_279
*811 FILLER_0_27_281
*812 FILLER_0_27_293
*813 FILLER_0_27_3
*814 FILLER_0_27_305
*815 FILLER_0_27_317
*816 FILLER_0_27_329
*817 FILLER_0_27_39
*818 FILLER_0_27_51
*819 FILLER_0_27_55
*820 FILLER_0_27_57
*821 FILLER_0_27_69
*822 FILLER_0_27_81
*823 FILLER_0_27_93
*824 FILLER_0_28_109
*825 FILLER_0_28_121
*826 FILLER_0_28_133
*827 FILLER_0_28_139
*828 FILLER_0_28_141
*829 FILLER_0_28_15
*830 FILLER_0_28_153
*831 FILLER_0_28_165
*832 FILLER_0_28_177
*833 FILLER_0_28_189
*834 FILLER_0_28_195
*835 FILLER_0_28_197
*836 FILLER_0_28_209
*837 FILLER_0_28_221
*838 FILLER_0_28_233
*839 FILLER_0_28_245
*840 FILLER_0_28_251
*841 FILLER_0_28_253
*842 FILLER_0_28_265
*843 FILLER_0_28_27
*844 FILLER_0_28_277
*845 FILLER_0_28_289
*846 FILLER_0_28_29
*847 FILLER_0_28_3
*848 FILLER_0_28_301
*849 FILLER_0_28_307
*850 FILLER_0_28_309
*851 FILLER_0_28_321
*852 FILLER_0_28_333
*853 FILLER_0_28_41
*854 FILLER_0_28_53
*855 FILLER_0_28_65
*856 FILLER_0_28_77
*857 FILLER_0_28_83
*858 FILLER_0_28_85
*859 FILLER_0_28_97
*860 FILLER_0_29_105
*861 FILLER_0_29_111
*862 FILLER_0_29_113
*863 FILLER_0_29_125
*864 FILLER_0_29_137
*865 FILLER_0_29_149
*866 FILLER_0_29_15
*867 FILLER_0_29_161
*868 FILLER_0_29_167
*869 FILLER_0_29_169
*870 FILLER_0_29_181
*871 FILLER_0_29_193
*872 FILLER_0_29_205
*873 FILLER_0_29_217
*874 FILLER_0_29_223
*875 FILLER_0_29_225
*876 FILLER_0_29_237
*877 FILLER_0_29_249
*878 FILLER_0_29_261
*879 FILLER_0_29_27
*880 FILLER_0_29_273
*881 FILLER_0_29_279
*882 FILLER_0_29_281
*883 FILLER_0_29_293
*884 FILLER_0_29_3
*885 FILLER_0_29_305
*886 FILLER_0_29_317
*887 FILLER_0_29_329
*888 FILLER_0_29_39
*889 FILLER_0_29_51
*890 FILLER_0_29_55
*891 FILLER_0_29_57
*892 FILLER_0_29_69
*893 FILLER_0_29_81
*894 FILLER_0_29_93
*895 FILLER_0_2_109
*896 FILLER_0_2_121
*897 FILLER_0_2_133
*898 FILLER_0_2_139
*899 FILLER_0_2_141
*900 FILLER_0_2_15
*901 FILLER_0_2_153
*902 FILLER_0_2_165
*903 FILLER_0_2_177
*904 FILLER_0_2_189
*905 FILLER_0_2_195
*906 FILLER_0_2_197
*907 FILLER_0_2_209
*908 FILLER_0_2_221
*909 FILLER_0_2_233
*910 FILLER_0_2_245
*911 FILLER_0_2_251
*912 FILLER_0_2_253
*913 FILLER_0_2_265
*914 FILLER_0_2_27
*915 FILLER_0_2_277
*916 FILLER_0_2_289
*917 FILLER_0_2_29
*918 FILLER_0_2_3
*919 FILLER_0_2_301
*920 FILLER_0_2_307
*921 FILLER_0_2_309
*922 FILLER_0_2_321
*923 FILLER_0_2_333
*924 FILLER_0_2_41
*925 FILLER_0_2_53
*926 FILLER_0_2_65
*927 FILLER_0_2_77
*928 FILLER_0_2_83
*929 FILLER_0_2_85
*930 FILLER_0_2_97
*931 FILLER_0_30_109
*932 FILLER_0_30_121
*933 FILLER_0_30_133
*934 FILLER_0_30_139
*935 FILLER_0_30_141
*936 FILLER_0_30_15
*937 FILLER_0_30_153
*938 FILLER_0_30_165
*939 FILLER_0_30_177
*940 FILLER_0_30_189
*941 FILLER_0_30_195
*942 FILLER_0_30_197
*943 FILLER_0_30_209
*944 FILLER_0_30_221
*945 FILLER_0_30_233
*946 FILLER_0_30_245
*947 FILLER_0_30_251
*948 FILLER_0_30_253
*949 FILLER_0_30_265
*950 FILLER_0_30_27
*951 FILLER_0_30_277
*952 FILLER_0_30_289
*953 FILLER_0_30_29
*954 FILLER_0_30_3
*955 FILLER_0_30_301
*956 FILLER_0_30_307
*957 FILLER_0_30_309
*958 FILLER_0_30_321
*959 FILLER_0_30_333
*960 FILLER_0_30_41
*961 FILLER_0_30_53
*962 FILLER_0_30_65
*963 FILLER_0_30_77
*964 FILLER_0_30_83
*965 FILLER_0_30_85
*966 FILLER_0_30_97
*967 FILLER_0_31_105
*968 FILLER_0_31_111
*969 FILLER_0_31_113
*970 FILLER_0_31_125
*971 FILLER_0_31_137
*972 FILLER_0_31_149
*973 FILLER_0_31_15
*974 FILLER_0_31_161
*975 FILLER_0_31_167
*976 FILLER_0_31_169
*977 FILLER_0_31_181
*978 FILLER_0_31_193
*979 FILLER_0_31_205
*980 FILLER_0_31_217
*981 FILLER_0_31_223
*982 FILLER_0_31_225
*983 FILLER_0_31_237
*984 FILLER_0_31_249
*985 FILLER_0_31_261
*986 FILLER_0_31_27
*987 FILLER_0_31_273
*988 FILLER_0_31_279
*989 FILLER_0_31_281
*990 FILLER_0_31_293
*991 FILLER_0_31_3
*992 FILLER_0_31_305
*993 FILLER_0_31_317
*994 FILLER_0_31_329
*995 FILLER_0_31_39
*996 FILLER_0_31_51
*997 FILLER_0_31_55
*998 FILLER_0_31_57
*999 FILLER_0_31_69
*1000 FILLER_0_31_81
*1001 FILLER_0_31_93
*1002 FILLER_0_32_109
*1003 FILLER_0_32_121
*1004 FILLER_0_32_133
*1005 FILLER_0_32_139
*1006 FILLER_0_32_141
*1007 FILLER_0_32_15
*1008 FILLER_0_32_153
*1009 FILLER_0_32_165
*1010 FILLER_0_32_177
*1011 FILLER_0_32_189
*1012 FILLER_0_32_195
*1013 FILLER_0_32_197
*1014 FILLER_0_32_209
*1015 FILLER_0_32_221
*1016 FILLER_0_32_233
*1017 FILLER_0_32_245
*1018 FILLER_0_32_251
*1019 FILLER_0_32_253
*1020 FILLER_0_32_265
*1021 FILLER_0_32_27
*1022 FILLER_0_32_277
*1023 FILLER_0_32_289
*1024 FILLER_0_32_29
*1025 FILLER_0_32_3
*1026 FILLER_0_32_301
*1027 FILLER_0_32_307
*1028 FILLER_0_32_309
*1029 FILLER_0_32_321
*1030 FILLER_0_32_333
*1031 FILLER_0_32_41
*1032 FILLER_0_32_53
*1033 FILLER_0_32_65
*1034 FILLER_0_32_77
*1035 FILLER_0_32_83
*1036 FILLER_0_32_85
*1037 FILLER_0_32_97
*1038 FILLER_0_33_105
*1039 FILLER_0_33_111
*1040 FILLER_0_33_113
*1041 FILLER_0_33_15
*1042 FILLER_0_33_162
*1043 FILLER_0_33_169
*1044 FILLER_0_33_181
*1045 FILLER_0_33_193
*1046 FILLER_0_33_205
*1047 FILLER_0_33_217
*1048 FILLER_0_33_223
*1049 FILLER_0_33_225
*1050 FILLER_0_33_237
*1051 FILLER_0_33_249
*1052 FILLER_0_33_261
*1053 FILLER_0_33_27
*1054 FILLER_0_33_273
*1055 FILLER_0_33_279
*1056 FILLER_0_33_281
*1057 FILLER_0_33_293
*1058 FILLER_0_33_3
*1059 FILLER_0_33_305
*1060 FILLER_0_33_317
*1061 FILLER_0_33_329
*1062 FILLER_0_33_39
*1063 FILLER_0_33_51
*1064 FILLER_0_33_55
*1065 FILLER_0_33_57
*1066 FILLER_0_33_69
*1067 FILLER_0_33_81
*1068 FILLER_0_33_93
*1069 FILLER_0_34_109
*1070 FILLER_0_34_117
*1071 FILLER_0_34_122
*1072 FILLER_0_34_137
*1073 FILLER_0_34_149
*1074 FILLER_0_34_15
*1075 FILLER_0_34_157
*1076 FILLER_0_34_179
*1077 FILLER_0_34_194
*1078 FILLER_0_34_197
*1079 FILLER_0_34_205
*1080 FILLER_0_34_217
*1081 FILLER_0_34_229
*1082 FILLER_0_34_241
*1083 FILLER_0_34_249
*1084 FILLER_0_34_253
*1085 FILLER_0_34_265
*1086 FILLER_0_34_27
*1087 FILLER_0_34_277
*1088 FILLER_0_34_289
*1089 FILLER_0_34_29
*1090 FILLER_0_34_3
*1091 FILLER_0_34_301
*1092 FILLER_0_34_307
*1093 FILLER_0_34_309
*1094 FILLER_0_34_321
*1095 FILLER_0_34_333
*1096 FILLER_0_34_41
*1097 FILLER_0_34_53
*1098 FILLER_0_34_65
*1099 FILLER_0_34_77
*1100 FILLER_0_34_83
*1101 FILLER_0_34_85
*1102 FILLER_0_34_97
*1103 FILLER_0_35_133
*1104 FILLER_0_35_145
*1105 FILLER_0_35_15
*1106 FILLER_0_35_186
*1107 FILLER_0_35_210
*1108 FILLER_0_35_221
*1109 FILLER_0_35_225
*1110 FILLER_0_35_237
*1111 FILLER_0_35_249
*1112 FILLER_0_35_261
*1113 FILLER_0_35_27
*1114 FILLER_0_35_273
*1115 FILLER_0_35_279
*1116 FILLER_0_35_281
*1117 FILLER_0_35_293
*1118 FILLER_0_35_3
*1119 FILLER_0_35_305
*1120 FILLER_0_35_317
*1121 FILLER_0_35_329
*1122 FILLER_0_35_39
*1123 FILLER_0_35_51
*1124 FILLER_0_35_55
*1125 FILLER_0_35_57
*1126 FILLER_0_35_69
*1127 FILLER_0_35_81
*1128 FILLER_0_36_109
*1129 FILLER_0_36_130
*1130 FILLER_0_36_138
*1131 FILLER_0_36_141
*1132 FILLER_0_36_145
*1133 FILLER_0_36_15
*1134 FILLER_0_36_154
*1135 FILLER_0_36_158
*1136 FILLER_0_36_164
*1137 FILLER_0_36_192
*1138 FILLER_0_36_225
*1139 FILLER_0_36_237
*1140 FILLER_0_36_249
*1141 FILLER_0_36_253
*1142 FILLER_0_36_265
*1143 FILLER_0_36_27
*1144 FILLER_0_36_277
*1145 FILLER_0_36_289
*1146 FILLER_0_36_29
*1147 FILLER_0_36_3
*1148 FILLER_0_36_301
*1149 FILLER_0_36_307
*1150 FILLER_0_36_309
*1151 FILLER_0_36_321
*1152 FILLER_0_36_333
*1153 FILLER_0_36_41
*1154 FILLER_0_36_53
*1155 FILLER_0_36_65
*1156 FILLER_0_36_77
*1157 FILLER_0_36_83
*1158 FILLER_0_36_97
*1159 FILLER_0_37_100
*1160 FILLER_0_37_106
*1161 FILLER_0_37_121
*1162 FILLER_0_37_127
*1163 FILLER_0_37_15
*1164 FILLER_0_37_157
*1165 FILLER_0_37_165
*1166 FILLER_0_37_199
*1167 FILLER_0_37_203
*1168 FILLER_0_37_241
*1169 FILLER_0_37_265
*1170 FILLER_0_37_27
*1171 FILLER_0_37_277
*1172 FILLER_0_37_281
*1173 FILLER_0_37_293
*1174 FILLER_0_37_3
*1175 FILLER_0_37_305
*1176 FILLER_0_37_317
*1177 FILLER_0_37_329
*1178 FILLER_0_37_39
*1179 FILLER_0_37_51
*1180 FILLER_0_37_55
*1181 FILLER_0_37_57
*1182 FILLER_0_37_69
*1183 FILLER_0_37_73
*1184 FILLER_0_37_88
*1185 FILLER_0_37_94
*1186 FILLER_0_38_105
*1187 FILLER_0_38_111
*1188 FILLER_0_38_141
*1189 FILLER_0_38_149
*1190 FILLER_0_38_16
*1191 FILLER_0_38_167
*1192 FILLER_0_38_169
*1193 FILLER_0_38_181
*1194 FILLER_0_38_194
*1195 FILLER_0_38_197
*1196 FILLER_0_38_21
*1197 FILLER_0_38_222
*1198 FILLER_0_38_225
*1199 FILLER_0_38_251
*1200 FILLER_0_38_256
*1201 FILLER_0_38_268
*1202 FILLER_0_38_281
*1203 FILLER_0_38_29
*1204 FILLER_0_38_293
*1205 FILLER_0_38_3
*1206 FILLER_0_38_305
*1207 FILLER_0_38_309
*1208 FILLER_0_38_318
*1209 FILLER_0_38_322
*1210 FILLER_0_38_326
*1211 FILLER_0_38_334
*1212 FILLER_0_38_36
*1213 FILLER_0_38_44
*1214 FILLER_0_38_52
*1215 FILLER_0_38_61
*1216 FILLER_0_38_65
*1217 FILLER_0_38_72
*1218 FILLER_0_38_80
*1219 FILLER_0_38_95
*1220 FILLER_0_3_105
*1221 FILLER_0_3_111
*1222 FILLER_0_3_113
*1223 FILLER_0_3_125
*1224 FILLER_0_3_137
*1225 FILLER_0_3_149
*1226 FILLER_0_3_15
*1227 FILLER_0_3_161
*1228 FILLER_0_3_167
*1229 FILLER_0_3_169
*1230 FILLER_0_3_181
*1231 FILLER_0_3_193
*1232 FILLER_0_3_205
*1233 FILLER_0_3_217
*1234 FILLER_0_3_223
*1235 FILLER_0_3_225
*1236 FILLER_0_3_237
*1237 FILLER_0_3_249
*1238 FILLER_0_3_261
*1239 FILLER_0_3_27
*1240 FILLER_0_3_273
*1241 FILLER_0_3_279
*1242 FILLER_0_3_281
*1243 FILLER_0_3_293
*1244 FILLER_0_3_3
*1245 FILLER_0_3_305
*1246 FILLER_0_3_317
*1247 FILLER_0_3_329
*1248 FILLER_0_3_39
*1249 FILLER_0_3_51
*1250 FILLER_0_3_55
*1251 FILLER_0_3_57
*1252 FILLER_0_3_69
*1253 FILLER_0_3_81
*1254 FILLER_0_3_93
*1255 FILLER_0_4_109
*1256 FILLER_0_4_121
*1257 FILLER_0_4_133
*1258 FILLER_0_4_139
*1259 FILLER_0_4_141
*1260 FILLER_0_4_15
*1261 FILLER_0_4_153
*1262 FILLER_0_4_165
*1263 FILLER_0_4_177
*1264 FILLER_0_4_189
*1265 FILLER_0_4_195
*1266 FILLER_0_4_197
*1267 FILLER_0_4_209
*1268 FILLER_0_4_221
*1269 FILLER_0_4_233
*1270 FILLER_0_4_245
*1271 FILLER_0_4_251
*1272 FILLER_0_4_253
*1273 FILLER_0_4_265
*1274 FILLER_0_4_27
*1275 FILLER_0_4_277
*1276 FILLER_0_4_289
*1277 FILLER_0_4_29
*1278 FILLER_0_4_3
*1279 FILLER_0_4_301
*1280 FILLER_0_4_307
*1281 FILLER_0_4_309
*1282 FILLER_0_4_321
*1283 FILLER_0_4_333
*1284 FILLER_0_4_41
*1285 FILLER_0_4_53
*1286 FILLER_0_4_65
*1287 FILLER_0_4_77
*1288 FILLER_0_4_83
*1289 FILLER_0_4_85
*1290 FILLER_0_4_97
*1291 FILLER_0_5_105
*1292 FILLER_0_5_111
*1293 FILLER_0_5_113
*1294 FILLER_0_5_125
*1295 FILLER_0_5_137
*1296 FILLER_0_5_149
*1297 FILLER_0_5_15
*1298 FILLER_0_5_161
*1299 FILLER_0_5_167
*1300 FILLER_0_5_169
*1301 FILLER_0_5_181
*1302 FILLER_0_5_193
*1303 FILLER_0_5_205
*1304 FILLER_0_5_217
*1305 FILLER_0_5_223
*1306 FILLER_0_5_225
*1307 FILLER_0_5_237
*1308 FILLER_0_5_249
*1309 FILLER_0_5_261
*1310 FILLER_0_5_27
*1311 FILLER_0_5_273
*1312 FILLER_0_5_279
*1313 FILLER_0_5_281
*1314 FILLER_0_5_293
*1315 FILLER_0_5_3
*1316 FILLER_0_5_305
*1317 FILLER_0_5_317
*1318 FILLER_0_5_329
*1319 FILLER_0_5_39
*1320 FILLER_0_5_51
*1321 FILLER_0_5_55
*1322 FILLER_0_5_57
*1323 FILLER_0_5_69
*1324 FILLER_0_5_81
*1325 FILLER_0_5_93
*1326 FILLER_0_6_109
*1327 FILLER_0_6_121
*1328 FILLER_0_6_133
*1329 FILLER_0_6_139
*1330 FILLER_0_6_141
*1331 FILLER_0_6_15
*1332 FILLER_0_6_153
*1333 FILLER_0_6_165
*1334 FILLER_0_6_177
*1335 FILLER_0_6_189
*1336 FILLER_0_6_195
*1337 FILLER_0_6_197
*1338 FILLER_0_6_209
*1339 FILLER_0_6_221
*1340 FILLER_0_6_233
*1341 FILLER_0_6_245
*1342 FILLER_0_6_251
*1343 FILLER_0_6_253
*1344 FILLER_0_6_265
*1345 FILLER_0_6_27
*1346 FILLER_0_6_277
*1347 FILLER_0_6_289
*1348 FILLER_0_6_29
*1349 FILLER_0_6_3
*1350 FILLER_0_6_301
*1351 FILLER_0_6_307
*1352 FILLER_0_6_309
*1353 FILLER_0_6_321
*1354 FILLER_0_6_333
*1355 FILLER_0_6_41
*1356 FILLER_0_6_53
*1357 FILLER_0_6_65
*1358 FILLER_0_6_77
*1359 FILLER_0_6_83
*1360 FILLER_0_6_85
*1361 FILLER_0_6_97
*1362 FILLER_0_7_105
*1363 FILLER_0_7_111
*1364 FILLER_0_7_113
*1365 FILLER_0_7_125
*1366 FILLER_0_7_137
*1367 FILLER_0_7_149
*1368 FILLER_0_7_15
*1369 FILLER_0_7_161
*1370 FILLER_0_7_167
*1371 FILLER_0_7_169
*1372 FILLER_0_7_181
*1373 FILLER_0_7_193
*1374 FILLER_0_7_205
*1375 FILLER_0_7_217
*1376 FILLER_0_7_223
*1377 FILLER_0_7_225
*1378 FILLER_0_7_237
*1379 FILLER_0_7_249
*1380 FILLER_0_7_261
*1381 FILLER_0_7_27
*1382 FILLER_0_7_273
*1383 FILLER_0_7_279
*1384 FILLER_0_7_281
*1385 FILLER_0_7_293
*1386 FILLER_0_7_3
*1387 FILLER_0_7_305
*1388 FILLER_0_7_317
*1389 FILLER_0_7_329
*1390 FILLER_0_7_39
*1391 FILLER_0_7_51
*1392 FILLER_0_7_55
*1393 FILLER_0_7_57
*1394 FILLER_0_7_69
*1395 FILLER_0_7_81
*1396 FILLER_0_7_93
*1397 FILLER_0_8_109
*1398 FILLER_0_8_121
*1399 FILLER_0_8_133
*1400 FILLER_0_8_139
*1401 FILLER_0_8_141
*1402 FILLER_0_8_15
*1403 FILLER_0_8_153
*1404 FILLER_0_8_165
*1405 FILLER_0_8_177
*1406 FILLER_0_8_189
*1407 FILLER_0_8_195
*1408 FILLER_0_8_197
*1409 FILLER_0_8_209
*1410 FILLER_0_8_221
*1411 FILLER_0_8_233
*1412 FILLER_0_8_245
*1413 FILLER_0_8_251
*1414 FILLER_0_8_253
*1415 FILLER_0_8_265
*1416 FILLER_0_8_27
*1417 FILLER_0_8_277
*1418 FILLER_0_8_289
*1419 FILLER_0_8_29
*1420 FILLER_0_8_3
*1421 FILLER_0_8_301
*1422 FILLER_0_8_307
*1423 FILLER_0_8_309
*1424 FILLER_0_8_321
*1425 FILLER_0_8_333
*1426 FILLER_0_8_41
*1427 FILLER_0_8_53
*1428 FILLER_0_8_65
*1429 FILLER_0_8_77
*1430 FILLER_0_8_83
*1431 FILLER_0_8_85
*1432 FILLER_0_8_97
*1433 FILLER_0_9_105
*1434 FILLER_0_9_111
*1435 FILLER_0_9_113
*1436 FILLER_0_9_125
*1437 FILLER_0_9_137
*1438 FILLER_0_9_149
*1439 FILLER_0_9_15
*1440 FILLER_0_9_161
*1441 FILLER_0_9_167
*1442 FILLER_0_9_169
*1443 FILLER_0_9_181
*1444 FILLER_0_9_193
*1445 FILLER_0_9_205
*1446 FILLER_0_9_217
*1447 FILLER_0_9_223
*1448 FILLER_0_9_225
*1449 FILLER_0_9_237
*1450 FILLER_0_9_249
*1451 FILLER_0_9_261
*1452 FILLER_0_9_27
*1453 FILLER_0_9_273
*1454 FILLER_0_9_279
*1455 FILLER_0_9_281
*1456 FILLER_0_9_293
*1457 FILLER_0_9_3
*1458 FILLER_0_9_305
*1459 FILLER_0_9_317
*1460 FILLER_0_9_329
*1461 FILLER_0_9_39
*1462 FILLER_0_9_51
*1463 FILLER_0_9_55
*1464 FILLER_0_9_57
*1465 FILLER_0_9_69
*1466 FILLER_0_9_81
*1467 FILLER_0_9_93
*1468 PHY_EDGE_ROW_0_Left_39
*1469 PHY_EDGE_ROW_0_Right_0
*1470 PHY_EDGE_ROW_10_Left_49
*1471 PHY_EDGE_ROW_10_Right_10
*1472 PHY_EDGE_ROW_11_Left_50
*1473 PHY_EDGE_ROW_11_Right_11
*1474 PHY_EDGE_ROW_12_Left_51
*1475 PHY_EDGE_ROW_12_Right_12