*SPEF "ieee 1481-1999"
*DESIGN "tt_um_ledcontroller_Gatsch"
*DATE "11:11:11 Fri 11 11, 1111"
*VENDOR "OpenRCX"
*PROGRAM "Parallel Extraction"
*VERSION "1.0"
*DESIGN_FLOW "NAME_SCOPE LOCAL" "PIN_CAP NONE"
*DIVIDER /
*DELIMITER :
*BUS_DELIMITER []
*T_UNIT 1 NS
*C_UNIT 1 PF
*R_UNIT 1 OHM
*L_UNIT 1 HENRY

*NAME_MAP
*3 clk
*4 ena
*5 rst_n
*6 ui_in[0]
*7 ui_in[1]
*8 ui_in[2]
*9 ui_in[3]
*10 ui_in[4]
*11 ui_in[5]
*12 ui_in[6]
*13 ui_in[7]
*14 uio_in[0]
*15 uio_in[1]
*16 uio_in[2]
*17 uio_in[3]
*18 uio_in[4]
*19 uio_in[5]
*20 uio_in[6]
*21 uio_in[7]
*22 net9
*23 uio_oe[1]
*24 net10
*25 net11
*26 net12
*27 net13
*28 net14
*29 net15
*30 net16
*31 net17
*32 net18
*33 net19
*34 net20
*35 net21
*36 net22
*37 net23
*38 net24
*39 uo_out[1]
*40 uo_out[2]
*41 net25
*42 net26
*43 net27
*44 net28
*45 net29
*46 _0000_
*47 _0001_
*48 _0002_
*49 _0003_
*50 _0004_
*51 _0005_
*52 _0006_
*53 _0007_
*54 _0008_
*55 _0009_
*56 _0010_
*57 _0011_
*58 _0012_
*59 _0013_
*60 _0014_
*61 _0015_
*62 _0016_
*63 _0017_
*64 _0018_
*65 _0019_
*66 _0020_
*67 _0021_
*68 _0022_
*69 _0023_
*70 _0024_
*71 _0025_
*72 _0026_
*73 _0027_
*74 _0028_
*75 _0029_
*76 _0030_
*77 _0031_
*78 _0032_
*79 _0033_
*80 _0034_
*81 _0035_
*82 _0036_
*83 _0037_
*84 _0038_
*85 _0039_
*86 _0040_
*87 _0041_
*88 _0042_
*89 _0043_
*90 _0044_
*91 _0045_
*92 _0046_
*93 _0047_
*94 _0048_
*95 _0049_
*96 _0050_
*97 _0051_
*98 _0052_
*99 _0053_
*100 _0054_
*101 _0055_
*102 _0056_
*103 _0057_
*104 _0058_
*105 _0059_
*106 _0060_
*107 _0061_
*108 _0062_
*109 _0063_
*110 _0064_
*111 _0065_
*112 _0066_
*113 _0067_
*114 _0068_
*115 _0069_
*116 _0070_
*117 _0071_
*118 _0072_
*119 _0073_
*120 _0074_
*121 _0075_
*122 _0076_
*123 _0077_
*124 _0078_
*125 _0079_
*126 _0080_
*127 _0081_
*128 _0082_
*129 _0083_
*130 _0084_
*131 _0085_
*132 _0086_
*133 _0087_
*134 _0088_
*135 _0089_
*136 _0090_
*137 _0091_
*138 _0092_
*139 _0093_
*140 _0094_
*141 _0095_
*142 _0096_
*143 _0097_
*144 _0098_
*145 _0099_
*146 _0100_
*147 _0101_
*148 _0102_
*149 _0103_
*150 _0104_
*151 _0105_
*152 _0106_
*153 _0107_
*154 _0108_
*155 _0109_
*156 _0110_
*157 _0111_
*158 _0112_
*159 _0113_
*160 _0114_
*161 _0115_
*162 _0116_
*163 _0117_
*164 _0118_
*165 _0119_
*166 _0120_
*167 _0121_
*168 _0122_
*169 _0123_
*170 _0124_
*171 _0125_
*172 _0126_
*173 _0127_
*174 _0128_
*175 _0129_
*176 _0130_
*177 _0131_
*178 _0132_
*179 _0133_
*180 _0134_
*181 _0135_
*182 _0136_
*183 _0137_
*184 _0138_
*185 _0139_
*186 _0140_
*187 _0141_
*188 _0142_
*189 _0143_
*190 _0144_
*191 _0145_
*192 _0146_
*193 _0147_
*194 _0148_
*195 _0149_
*196 _0150_
*197 _0151_
*198 _0152_
*199 _0153_
*200 _0154_
*201 _0155_
*202 _0156_
*203 _0157_
*204 _0158_
*205 _0159_
*206 _0160_
*207 _0161_
*208 _0162_
*209 _0163_
*210 _0164_
*211 _0165_
*212 _0166_
*213 _0167_
*214 _0168_
*215 _0169_
*216 _0170_
*217 _0171_
*218 _0172_
*219 _0173_
*220 _0174_
*221 _0175_
*222 _0176_
*223 _0177_
*224 _0178_
*225 _0179_
*226 _0180_
*227 _0181_
*228 _0182_
*229 _0183_
*230 _0184_
*231 _0185_
*232 _0186_
*233 _0187_
*234 _0188_
*235 _0189_
*236 _0190_
*237 _0191_
*238 _0192_
*239 _0193_
*240 _0194_
*241 _0195_
*242 _0196_
*243 _0197_
*244 _0198_
*245 _0199_
*246 _0200_
*247 _0201_
*248 _0202_
*249 _0203_
*250 _0204_
*251 _0205_
*252 _0206_
*253 _0207_
*254 _0208_
*255 _0209_
*256 _0210_
*257 _0211_
*258 _0212_
*259 _0213_
*260 _0214_
*261 _0215_
*262 _0216_
*263 _0217_
*264 _0218_
*265 _0219_
*266 _0220_
*267 _0221_
*268 _0222_
*269 _0223_
*270 _0224_
*271 _0225_
*272 _0226_
*273 _0227_
*274 _0228_
*275 _0229_
*276 _0230_
*277 _0231_
*278 _0232_
*279 _0233_
*280 _0234_
*281 _0235_
*282 _0236_
*283 _0237_
*284 _0238_
*285 _0239_
*286 _0240_
*287 _0241_
*288 _0242_
*289 _0243_
*290 _0244_
*291 _0245_
*292 _0246_
*293 _0247_
*294 _0248_
*295 _0249_
*296 _0250_
*297 _0251_
*298 _0252_
*299 _0253_
*300 _0254_
*301 _0255_
*302 _0256_
*303 _0257_
*304 _0258_
*305 _0259_
*306 _0260_
*307 _0261_
*308 _0262_
*309 _0263_
*310 _0264_
*311 _0265_
*312 _0266_
*313 _0267_
*314 _0268_
*315 _0269_
*316 _0270_
*317 _0271_
*318 _0272_
*319 _0273_
*320 _0274_
*321 _0275_
*322 _0276_
*323 _0277_
*324 _0278_
*325 _0279_
*326 _0280_
*327 _0281_
*328 _0282_
*329 _0283_
*330 _0284_
*331 _0285_
*332 _0286_
*333 _0287_
*334 _0288_
*335 _0289_
*336 _0290_
*337 _0291_
*338 _0292_
*339 _0293_
*340 _0294_
*341 _0295_
*342 _0296_
*343 _0297_
*344 _0298_
*345 _0299_
*346 _0300_
*347 _0301_
*348 _0302_
*349 _0303_
*350 _0304_
*351 _0305_
*352 _0306_
*353 _0307_
*354 _0308_
*355 _0309_
*356 _0310_
*357 _0311_
*358 _0312_
*359 _0313_
*360 _0314_
*361 _0315_
*362 _0316_
*363 _0317_
*364 _0318_
*365 _0319_
*366 _0320_
*367 _0321_
*368 _0322_
*369 _0323_
*370 _0324_
*371 _0325_
*372 _0326_
*373 _0327_
*374 _0328_
*375 _0329_
*376 _0330_
*377 _0331_
*378 _0332_
*379 _0333_
*380 _0334_
*381 _0335_
*382 _0336_
*383 _0337_
*384 _0338_
*385 _0339_
*386 _0340_
*387 _0341_
*388 _0342_
*389 _0343_
*390 _0344_
*391 _0345_
*392 _0346_
*393 _0347_
*394 _0348_
*395 _0349_
*396 _0350_
*397 _0351_
*398 _0352_
*399 _0353_
*400 _0354_
*401 _0355_
*402 _0356_
*403 _0357_
*404 _0358_
*405 _0359_
*406 _0360_
*407 _0361_
*408 _0362_
*409 _0363_
*410 _0364_
*411 _0365_
*412 _0366_
*413 _0367_
*414 _0368_
*415 _0369_
*416 _0370_
*417 _0371_
*418 _0372_
*419 _0373_
*420 _0374_
*421 _0375_
*422 _0376_
*423 _0377_
*424 _0378_
*425 _0379_
*426 _0380_
*427 _0381_
*428 _0382_
*429 _0383_
*430 _0384_
*431 _0385_
*432 _0386_
*433 _0387_
*434 _0388_
*435 _0389_
*436 _0390_
*437 _0391_
*438 _0392_
*439 _0393_
*440 _0394_
*441 _0395_
*442 _0396_
*443 _0397_
*444 _0398_
*445 _0399_
*446 _0400_
*447 _0401_
*448 _0402_
*449 _0403_
*450 _0404_
*451 _0405_
*452 _0406_
*453 _0407_
*454 _0408_
*455 _0409_
*456 _0410_
*457 _0411_
*458 _0412_
*459 _0413_
*460 _0414_
*461 _0415_
*462 _0416_
*463 _0417_
*464 _0418_
*465 _0419_
*466 _0420_
*467 _0421_
*468 _0422_
*469 _0423_
*470 _0424_
*471 _0425_
*472 _0426_
*473 _0427_
*474 _0428_
*475 _0429_
*476 _0430_
*477 _0431_
*478 _0432_
*479 _0433_
*480 _0434_
*481 _0435_
*482 _0436_
*483 _0437_
*484 _0438_
*485 _0439_
*486 _0440_
*487 _0441_
*488 _0442_
*489 _0443_
*490 _0444_
*491 _0445_
*492 _0446_
*493 _0447_
*494 _0448_
*495 _0449_
*496 _0450_
*497 _0451_
*498 _0452_
*499 _0453_
*500 _0454_
*501 _0455_
*502 _0456_
*503 _0457_
*504 _0458_
*505 _0459_
*506 _0460_
*507 _0461_
*508 _0462_
*509 _0463_
*510 _0464_
*511 _0465_
*512 _0466_
*513 _0467_
*514 _0468_
*515 _0469_
*516 _0470_
*517 _0471_
*518 _0472_
*519 _0473_
*520 _0474_
*521 _0475_
*522 _0476_
*523 _0477_
*524 _0478_
*525 _0479_
*526 _0480_
*527 _0481_
*528 _0482_
*529 _0483_
*530 _0484_
*531 _0485_
*532 _0486_
*533 _0487_
*534 _0488_
*535 _0489_
*536 _0490_
*537 _0491_
*538 _0492_
*539 _0493_
*540 _0494_
*541 _0495_
*542 _0496_
*543 _0497_
*544 _0498_
*545 _0499_
*546 _0500_
*547 _0501_
*548 _0502_
*549 _0503_
*550 _0504_
*551 _0505_
*552 _0506_
*553 _0507_
*554 _0508_
*555 _0509_
*556 _0510_
*557 _0511_
*558 _0512_
*559 _0513_
*560 _0514_
*561 _0515_
*562 _0516_
*563 _0517_
*564 _0518_
*565 _0519_
*566 _0520_
*567 _0521_
*568 _0522_
*569 _0523_
*570 _0524_
*571 _0525_
*572 _0526_
*573 _0527_
*574 _0528_
*575 _0529_
*576 _0530_
*577 _0531_
*578 _0532_
*579 _0533_
*580 _0534_
*581 _0535_
*582 _0536_
*583 _0537_
*584 _0538_
*585 _0539_
*586 _0540_
*587 _0541_
*588 _0542_
*589 _0543_
*590 _0544_
*591 _0545_
*592 _0546_
*593 _0547_
*594 _0548_
*595 _0549_
*596 _0550_
*597 _0551_
*598 _0552_
*599 _0553_
*600 _0554_
*601 _0555_
*602 _0556_
*603 _0557_
*604 _0558_
*605 _0559_
*606 _0560_
*607 _0561_
*608 _0562_
*609 _0563_
*610 _0564_
*611 _0565_
*612 _0566_
*613 _0567_
*614 _0568_
*615 _0569_
*616 _0570_
*617 _0571_
*618 _0572_
*619 _0573_
*620 _0574_
*621 _0575_
*622 _0576_
*623 _0577_
*624 _0578_
*625 _0579_
*626 _0580_
*627 _0581_
*628 _0582_
*629 _0583_
*630 _0584_
*631 _0585_
*632 _0586_
*633 _0587_
*634 _0588_
*635 _0589_
*636 _0590_
*637 _0591_
*638 _0592_
*639 _0593_
*640 _0594_
*641 _0595_
*642 _0596_
*643 _0597_
*644 _0598_
*645 _0599_
*646 _0600_
*647 _0601_
*648 _0602_
*649 _0603_
*650 _0604_
*651 _0605_
*652 _0606_
*653 _0607_
*654 _0608_
*655 _0609_
*656 _0610_
*657 _0611_
*658 _0612_
*659 _0613_
*660 _0614_
*661 _0615_
*662 _0616_
*663 _0617_
*664 _0618_
*665 _0619_
*666 _0620_
*667 _0621_
*668 _0622_
*669 _0623_
*670 _0624_
*671 _0625_
*672 _0626_
*673 _0627_
*674 _0628_
*675 _0629_
*676 _0630_
*677 _0631_
*678 _0632_
*679 _0633_
*680 _0634_
*681 _0635_
*682 _0636_
*683 _0637_
*684 _0638_
*685 _0639_
*686 _0640_
*687 _0641_
*688 _0642_
*689 _0643_
*690 _0644_
*691 _0645_
*692 _0646_
*693 _0647_
*694 _0648_
*695 _0649_
*696 _0650_
*697 _0651_
*698 _0652_
*699 _0653_
*700 _0654_
*701 _0655_
*702 _0656_
*703 _0657_
*704 _0658_
*705 _0659_
*706 _0660_
*707 _0661_
*708 _0662_
*709 _0663_
*710 _0664_
*711 _0665_
*712 _0666_
*713 _0667_
*714 _0668_
*715 _0669_
*716 _0670_
*717 _0671_
*718 _0672_
*719 _0673_
*720 _0674_
*721 _0675_
*722 _0676_
*723 _0677_
*724 _0678_
*725 _0679_
*726 _0680_
*727 _0681_
*728 _0682_
*729 _0683_
*730 _0684_
*731 _0685_
*732 _0686_
*733 _0687_
*734 _0688_
*735 _0689_
*736 _0690_
*737 _0691_
*738 _0692_
*739 _0693_
*740 _0694_
*741 _0695_
*742 _0696_
*743 _0697_
*744 _0698_
*745 _0699_
*746 _0700_
*747 _0701_
*748 _0702_
*749 _0703_
*750 _0704_
*751 _0705_
*752 _0706_
*753 _0707_
*754 _0708_
*755 _0709_
*756 _0710_
*757 _0711_
*758 _0712_
*759 _0713_
*760 _0714_
*761 _0715_
*762 _0716_
*763 _0717_
*764 _0718_
*765 _0719_
*766 _0720_
*767 _0721_
*768 _0722_
*769 _0723_
*770 _0724_
*771 _0725_
*772 _0726_
*773 _0727_
*774 _0728_
*775 _0729_
*776 _0730_
*777 _0731_
*778 _0732_
*779 _0733_
*780 _0734_
*781 _0735_
*782 _0736_
*783 _0737_
*784 _0738_
*785 _0739_
*786 _0740_
*787 _0741_
*788 _0742_
*789 _0743_
*790 _0744_
*791 _0745_
*792 _0746_
*793 _0747_
*794 _0748_
*795 _0749_
*796 _0750_
*797 _0751_
*798 _0752_
*799 _0753_
*800 _0754_
*801 _0755_
*802 _0756_
*803 _0757_
*804 _0758_
*805 _0759_
*806 _0760_
*807 _0761_
*808 _0762_
*809 _0763_
*810 _0764_
*811 _0765_
*812 _0766_
*813 _0767_
*814 _0768_
*815 _0769_
*816 _0770_
*817 _0771_
*818 _0772_
*819 _0773_
*820 _0774_
*821 _0775_
*822 _0776_
*823 _0777_
*824 _0778_
*825 _0779_
*826 _0780_
*827 _0781_
*828 _0782_
*829 _0783_
*830 _0784_
*831 _0785_
*832 _0786_
*833 _0787_
*834 _0788_
*835 _0789_
*836 _0790_
*837 _0791_
*838 _0792_
*839 _0793_
*840 _0794_
*841 _0795_
*842 _0796_
*843 _0797_
*844 _0798_
*845 _0799_
*846 _0800_
*847 _0801_
*848 _0802_
*849 _0803_
*850 _0804_
*851 _0805_
*852 _0806_
*853 _0807_
*854 _0808_
*855 _0809_
*856 _0810_
*857 _0811_
*858 _0812_
*859 _0813_
*860 _0814_
*861 _0815_
*862 _0816_
*863 _0817_
*864 _0818_
*865 _0819_
*866 _0820_
*867 _0821_
*868 _0822_
*869 _0823_
*870 _0824_
*871 _0825_
*872 _0826_
*873 _0827_
*874 _0828_
*875 _0829_
*876 _0830_
*877 _0831_
*878 _0832_
*879 _0833_
*880 _0834_
*881 _0835_
*882 _0836_
*883 _0837_
*884 _0838_
*885 _0839_
*886 _0840_
*887 _0841_
*888 _0842_
*889 _0843_
*890 _0844_
*891 _0845_
*892 _0846_
*893 _0847_
*894 _0848_
*895 _0849_
*896 _0850_
*897 _0851_
*898 _0852_
*899 _0853_
*900 _0854_
*901 _0855_
*902 _0856_
*903 _0857_
*904 _0858_
*905 _0859_
*906 _0860_
*907 _0861_
*908 clknet_0_clk
*909 clknet_2_0__leaf_clk
*910 clknet_2_1__leaf_clk
*911 clknet_2_2__leaf_clk
*912 clknet_2_3__leaf_clk
*913 ledcontroller\.address\[0\]
*914 ledcontroller\.address\[1\]
*915 ledcontroller\.address\[2\]
*916 ledcontroller\.address\[3\]
*917 ledcontroller\.address\[4\]
*918 ledcontroller\.address_valid
*919 ledcontroller\.data\[0\]
*920 ledcontroller\.data\[1\]
*921 ledcontroller\.data\[2\]
*922 ledcontroller\.data\[3\]
*923 ledcontroller\.data\[4\]
*924 ledcontroller\.data\[5\]
*925 ledcontroller\.data\[6\]
*926 ledcontroller\.data\[7\]
*927 ledcontroller\.data_valid
*928 ledcontroller\.datacounter\[0\]
*929 ledcontroller\.datacounter\[1\]
*930 ledcontroller\.datacounter\[2\]
*931 ledcontroller\.datacounter\[3\]
*932 ledcontroller\.datacounter\[4\]
*933 ledcontroller\.i2c_dut\.data_cnt\[0\]
*934 ledcontroller\.i2c_dut\.data_cnt\[1\]
*935 ledcontroller\.i2c_dut\.data_cnt\[2\]
*936 ledcontroller\.i2c_dut\.data_cnt\[3\]
*937 ledcontroller\.i2c_dut\.deviceaddressread
*938 ledcontroller\.i2c_dut\.last_scl
*939 ledcontroller\.i2c_dut\.last_sda
*940 ledcontroller\.i2c_dut\.read
*941 ledcontroller\.i2c_dut\.scl
*942 ledcontroller\.i2c_dut\.sda
*943 ledcontroller\.i2c_dut\.sda_o
*944 ledcontroller\.i2c_dut\.state\[0\]
*945 ledcontroller\.i2c_dut\.state\[1\]
*946 ledcontroller\.i2c_dut\.state\[2\]
*947 ledcontroller\.i2c_dut\.state\[3\]
*948 ledcontroller\.i2c_dut\.state\[4\]
*949 ledcontroller\.led_dut\.counter\[0\]
*950 ledcontroller\.led_dut\.counter\[10\]
*951 ledcontroller\.led_dut\.counter\[1\]
*952 ledcontroller\.led_dut\.counter\[2\]
*953 ledcontroller\.led_dut\.counter\[3\]
*954 ledcontroller\.led_dut\.counter\[4\]
*955 ledcontroller\.led_dut\.counter\[5\]
*956 ledcontroller\.led_dut\.counter\[6\]
*957 ledcontroller\.led_dut\.counter\[7\]
*958 ledcontroller\.led_dut\.counter\[8\]
*959 ledcontroller\.led_dut\.counter\[9\]
*960 ledcontroller\.led_dut\.data\[0\]
*961 ledcontroller\.led_dut\.data\[100\]
*962 ledcontroller\.led_dut\.data\[101\]
*963 ledcontroller\.led_dut\.data\[102\]
*964 ledcontroller\.led_dut\.data\[103\]
*965 ledcontroller\.led_dut\.data\[104\]
*966 ledcontroller\.led_dut\.data\[105\]
*967 ledcontroller\.led_dut\.data\[106\]
*968 ledcontroller\.led_dut\.data\[107\]
*969 ledcontroller\.led_dut\.data\[108\]
*970 ledcontroller\.led_dut\.data\[109\]
*971 ledcontroller\.led_dut\.data\[10\]
*972 ledcontroller\.led_dut\.data\[110\]
*973 ledcontroller\.led_dut\.data\[111\]
*974 ledcontroller\.led_dut\.data\[112\]
*975 ledcontroller\.led_dut\.data\[113\]
*976 ledcontroller\.led_dut\.data\[114\]
*977 ledcontroller\.led_dut\.data\[115\]
*978 ledcontroller\.led_dut\.data\[116\]
*979 ledcontroller\.led_dut\.data\[117\]
*980 ledcontroller\.led_dut\.data\[118\]
*981 ledcontroller\.led_dut\.data\[119\]
*982 ledcontroller\.led_dut\.data\[11\]
*983 ledcontroller\.led_dut\.data\[120\]
*984 ledcontroller\.led_dut\.data\[121\]
*985 ledcontroller\.led_dut\.data\[122\]
*986 ledcontroller\.led_dut\.data\[123\]
*987 ledcontroller\.led_dut\.data\[124\]
*988 ledcontroller\.led_dut\.data\[125\]
*989 ledcontroller\.led_dut\.data\[126\]
*990 ledcontroller\.led_dut\.data\[127\]
*991 ledcontroller\.led_dut\.data\[128\]
*992 ledcontroller\.led_dut\.data\[129\]
*993 ledcontroller\.led_dut\.data\[12\]
*994 ledcontroller\.led_dut\.data\[130\]
*995 ledcontroller\.led_dut\.data\[131\]
*996 ledcontroller\.led_dut\.data\[132\]
*997 ledcontroller\.led_dut\.data\[133\]
*998 ledcontroller\.led_dut\.data\[134\]
*999 ledcontroller\.led_dut\.data\[135\]
*1000 ledcontroller\.led_dut\.data\[136\]
*1001 ledcontroller\.led_dut\.data\[137\]
*1002 ledcontroller\.led_dut\.data\[138\]
*1003 ledcontroller\.led_dut\.data\[139\]
*1004 ledcontroller\.led_dut\.data\[13\]
*1005 ledcontroller\.led_dut\.data\[140\]
*1006 ledcontroller\.led_dut\.data\[141\]
*1007 ledcontroller\.led_dut\.data\[142\]
*1008 ledcontroller\.led_dut\.data\[143\]
*1009 ledcontroller\.led_dut\.data\[144\]
*1010 ledcontroller\.led_dut\.data\[145\]
*1011 ledcontroller\.led_dut\.data\[146\]
*1012 ledcontroller\.led_dut\.data\[147\]
*1013 ledcontroller\.led_dut\.data\[148\]
*1014 ledcontroller\.led_dut\.data\[149\]
*1015 ledcontroller\.led_dut\.data\[14\]
*1016 ledcontroller\.led_dut\.data\[150\]
*1017 ledcontroller\.led_dut\.data\[151\]
*1018 ledcontroller\.led_dut\.data\[152\]
*1019 ledcontroller\.led_dut\.data\[153\]
*1020 ledcontroller\.led_dut\.data\[154\]
*1021 ledcontroller\.led_dut\.data\[155\]
*1022 ledcontroller\.led_dut\.data\[156\]
*1023 ledcontroller\.led_dut\.data\[157\]
*1024 ledcontroller\.led_dut\.data\[158\]
*1025 ledcontroller\.led_dut\.data\[159\]
*1026 ledcontroller\.led_dut\.data\[15\]
*1027 ledcontroller\.led_dut\.data\[160\]
*1028 ledcontroller\.led_dut\.data\[161\]
*1029 ledcontroller\.led_dut\.data\[162\]
*1030 ledcontroller\.led_dut\.data\[163\]
*1031 ledcontroller\.led_dut\.data\[164\]
*1032 ledcontroller\.led_dut\.data\[165\]
*1033 ledcontroller\.led_dut\.data\[166\]
*1034 ledcontroller\.led_dut\.data\[167\]
*1035 ledcontroller\.led_dut\.data\[168\]
*1036 ledcontroller\.led_dut\.data\[169\]
*1037 ledcontroller\.led_dut\.data\[16\]
*1038 ledcontroller\.led_dut\.data\[170\]
*1039 ledcontroller\.led_dut\.data\[171\]
*1040 ledcontroller\.led_dut\.data\[172\]
*1041 ledcontroller\.led_dut\.data\[173\]
*1042 ledcontroller\.led_dut\.data\[174\]
*1043 ledcontroller\.led_dut\.data\[175\]
*1044 ledcontroller\.led_dut\.data\[176\]
*1045 ledcontroller\.led_dut\.data\[177\]
*1046 ledcontroller\.led_dut\.data\[178\]
*1047 ledcontroller\.led_dut\.data\[179\]
*1048 ledcontroller\.led_dut\.data\[17\]
*1049 ledcontroller\.led_dut\.data\[180\]
*1050 ledcontroller\.led_dut\.data\[181\]
*1051 ledcontroller\.led_dut\.data\[182\]
*1052 ledcontroller\.led_dut\.data\[183\]
*1053 ledcontroller\.led_dut\.data\[184\]
*1054 ledcontroller\.led_dut\.data\[185\]
*1055 ledcontroller\.led_dut\.data\[186\]
*1056 ledcontroller\.led_dut\.data\[187\]
*1057 ledcontroller\.led_dut\.data\[188\]
*1058 ledcontroller\.led_dut\.data\[189\]
*1059 ledcontroller\.led_dut\.data\[18\]
*1060 ledcontroller\.led_dut\.data\[190\]
*1061 ledcontroller\.led_dut\.data\[191\]
*1062 ledcontroller\.led_dut\.data\[192\]
*1063 ledcontroller\.led_dut\.data\[193\]
*1064 ledcontroller\.led_dut\.data\[194\]
*1065 ledcontroller\.led_dut\.data\[195\]
*1066 ledcontroller\.led_dut\.data\[196\]
*1067 ledcontroller\.led_dut\.data\[197\]
*1068 ledcontroller\.led_dut\.data\[198\]
*1069 ledcontroller\.led_dut\.data\[199\]
*1070 ledcontroller\.led_dut\.data\[19\]
*1071 ledcontroller\.led_dut\.data\[1\]
*1072 ledcontroller\.led_dut\.data\[200\]
*1073 ledcontroller\.led_dut\.data\[201\]
*1074 ledcontroller\.led_dut\.data\[202\]
*1075 ledcontroller\.led_dut\.data\[203\]
*1076 ledcontroller\.led_dut\.data\[204\]
*1077 ledcontroller\.led_dut\.data\[205\]
*1078 ledcontroller\.led_dut\.data\[206\]
*1079 ledcontroller\.led_dut\.data\[207\]
*1080 ledcontroller\.led_dut\.data\[208\]
*1081 ledcontroller\.led_dut\.data\[209\]
*1082 ledcontroller\.led_dut\.data\[20\]
*1083 ledcontroller\.led_dut\.data\[210\]
*1084 ledcontroller\.led_dut\.data\[211\]
*1085 ledcontroller\.led_dut\.data\[212\]
*1086 ledcontroller\.led_dut\.data\[213\]
*1087 ledcontroller\.led_dut\.data\[214\]
*1088 ledcontroller\.led_dut\.data\[215\]
*1089 ledcontroller\.led_dut\.data\[216\]
*1090 ledcontroller\.led_dut\.data\[217\]
*1091 ledcontroller\.led_dut\.data\[218\]
*1092 ledcontroller\.led_dut\.data\[219\]
*1093 ledcontroller\.led_dut\.data\[21\]
*1094 ledcontroller\.led_dut\.data\[220\]
*1095 ledcontroller\.led_dut\.data\[221\]
*1096 ledcontroller\.led_dut\.data\[222\]
*1097 ledcontroller\.led_dut\.data\[223\]
*1098 ledcontroller\.led_dut\.data\[224\]
*1099 ledcontroller\.led_dut\.data\[225\]
*1100 ledcontroller\.led_dut\.data\[226\]
*1101 ledcontroller\.led_dut\.data\[227\]
*1102 ledcontroller\.led_dut\.data\[228\]
*1103 ledcontroller\.led_dut\.data\[229\]
*1104 ledcontroller\.led_dut\.data\[22\]
*1105 ledcontroller\.led_dut\.data\[230\]
*1106 ledcontroller\.led_dut\.data\[231\]
*1107 ledcontroller\.led_dut\.data\[232\]
*1108 ledcontroller\.led_dut\.data\[233\]
*1109 ledcontroller\.led_dut\.data\[234\]
*1110 ledcontroller\.led_dut\.data\[235\]
*1111 ledcontroller\.led_dut\.data\[236\]
*1112 ledcontroller\.led_dut\.data\[237\]
*1113 ledcontroller\.led_dut\.data\[238\]
*1114 ledcontroller\.led_dut\.data\[239\]
*1115 ledcontroller\.led_dut\.data\[23\]
*1116 ledcontroller\.led_dut\.data\[24\]
*1117 ledcontroller\.led_dut\.data\[25\]
*1118 ledcontroller\.led_dut\.data\[26\]
*1119 ledcontroller\.led_dut\.data\[27\]
*1120 ledcontroller\.led_dut\.data\[28\]
*1121 ledcontroller\.led_dut\.data\[29\]
*1122 ledcontroller\.led_dut\.data\[2\]
*1123 ledcontroller\.led_dut\.data\[30\]
*1124 ledcontroller\.led_dut\.data\[31\]
*1125 ledcontroller\.led_dut\.data\[32\]
*1126 ledcontroller\.led_dut\.data\[33\]
*1127 ledcontroller\.led_dut\.data\[34\]
*1128 ledcontroller\.led_dut\.data\[35\]
*1129 ledcontroller\.led_dut\.data\[36\]
*1130 ledcontroller\.led_dut\.data\[37\]
*1131 ledcontroller\.led_dut\.data\[38\]
*1132 ledcontroller\.led_dut\.data\[39\]
*1133 ledcontroller\.led_dut\.data\[3\]
*1134 ledcontroller\.led_dut\.data\[40\]
*1135 ledcontroller\.led_dut\.data\[41\]
*1136 ledcontroller\.led_dut\.data\[42\]
*1137 ledcontroller\.led_dut\.data\[43\]
*1138 ledcontroller\.led_dut\.data\[44\]
*1139 ledcontroller\.led_dut\.data\[45\]
*1140 ledcontroller\.led_dut\.data\[46\]
*1141 ledcontroller\.led_dut\.data\[47\]
*1142 ledcontroller\.led_dut\.data\[48\]
*1143 ledcontroller\.led_dut\.data\[49\]
*1144 ledcontroller\.led_dut\.data\[4\]
*1145 ledcontroller\.led_dut\.data\[50\]
*1146 ledcontroller\.led_dut\.data\[51\]
*1147 ledcontroller\.led_dut\.data\[52\]
*1148 ledcontroller\.led_dut\.data\[53\]
*1149 ledcontroller\.led_dut\.data\[54\]
*1150 ledcontroller\.led_dut\.data\[55\]
*1151 ledcontroller\.led_dut\.data\[56\]
*1152 ledcontroller\.led_dut\.data\[57\]
*1153 ledcontroller\.led_dut\.data\[58\]
*1154 ledcontroller\.led_dut\.data\[59\]
*1155 ledcontroller\.led_dut\.data\[5\]
*1156 ledcontroller\.led_dut\.data\[60\]
*1157 ledcontroller\.led_dut\.data\[61\]
*1158 ledcontroller\.led_dut\.data\[62\]
*1159 ledcontroller\.led_dut\.data\[63\]
*1160 ledcontroller\.led_dut\.data\[64\]
*1161 ledcontroller\.led_dut\.data\[65\]
*1162 ledcontroller\.led_dut\.data\[66\]
*1163 ledcontroller\.led_dut\.data\[67\]
*1164 ledcontroller\.led_dut\.data\[68\]
*1165 ledcontroller\.led_dut\.data\[69\]
*1166 ledcontroller\.led_dut\.data\[6\]
*1167 ledcontroller\.led_dut\.data\[70\]
*1168 ledcontroller\.led_dut\.data\[71\]
*1169 ledcontroller\.led_dut\.data\[72\]
*1170 ledcontroller\.led_dut\.data\[73\]
*1171 ledcontroller\.led_dut\.data\[74\]
*1172 ledcontroller\.led_dut\.data\[75\]
*1173 ledcontroller\.led_dut\.data\[76\]
*1174 ledcontroller\.led_dut\.data\[77\]
*1175 ledcontroller\.led_dut\.data\[78\]
*1176 ledcontroller\.led_dut\.data\[79\]
*1177 ledcontroller\.led_dut\.data\[7\]
*1178 ledcontroller\.led_dut\.data\[80\]
*1179 ledcontroller\.led_dut\.data\[81\]
*1180 ledcontroller\.led_dut\.data\[82\]
*1181 ledcontroller\.led_dut\.data\[83\]
*1182 ledcontroller\.led_dut\.data\[84\]
*1183 ledcontroller\.led_dut\.data\[85\]
*1184 ledcontroller\.led_dut\.data\[86\]
*1185 ledcontroller\.led_dut\.data\[87\]
*1186 ledcontroller\.led_dut\.data\[88\]
*1187 ledcontroller\.led_dut\.data\[89\]
*1188 ledcontroller\.led_dut\.data\[8\]
*1189 ledcontroller\.led_dut\.data\[90\]
*1190 ledcontroller\.led_dut\.data\[91\]
*1191 ledcontroller\.led_dut\.data\[92\]
*1192 ledcontroller\.led_dut\.data\[93\]
*1193 ledcontroller\.led_dut\.data\[94\]
*1194 ledcontroller\.led_dut\.data\[95\]
*1195 ledcontroller\.led_dut\.data\[96\]
*1196 ledcontroller\.led_dut\.data\[97\]
*1197 ledcontroller\.led_dut\.data\[98\]
*1198 ledcontroller\.led_dut\.data\[99\]
*1199 ledcontroller\.led_dut\.data\[9\]
*1200 ledcontroller\.led_dut\.datacounter\[0\]
*1201 ledcontroller\.led_dut\.datacounter\[1\]
*1202 ledcontroller\.led_dut\.datacounter\[2\]
*1203 ledcontroller\.led_dut\.datacounter\[3\]
*1204 ledcontroller\.led_dut\.datacounter\[4\]
*1205 ledcontroller\.led_dut\.datacounter\[5\]
*1206 ledcontroller\.led_dut\.datacounter\[6\]
*1207 ledcontroller\.led_dut\.datacounter\[7\]
*1208 ledcontroller\.led_dut\.led_o
*1209 ledcontroller\.led_dut\.state
*1210 ledcontroller\.next_datacounter\[0\]
*1211 ledcontroller\.next_datacounter\[1\]
*1212 ledcontroller\.next_datacounter\[2\]
*1213 ledcontroller\.next_datacounter\[3\]
*1214 ledcontroller\.next_datacounter\[4\]
*1215 ledcontroller\.next_state\[0\]
*1216 ledcontroller\.next_state\[1\]
*1217 ledcontroller\.state\[0\]
*1218 ledcontroller\.state\[1\]
*1219 net1
*1220 net2
*1221 net3
*1222 net30
*1223 net31
*1224 net32
*1225 net33
*1226 net34
*1227 net35
*1228 net36
*1229 net37
*1230 net38
*1231 net39
*1232 net4
*1233 net40
*1234 net41
*1235 net42
*1236 net5
*1237 net6
*1238 net7
*1239 net8
*1240 ANTENNA_1
*1241 ANTENNA_10
*1242 ANTENNA_2
*1243 ANTENNA_3
*1244 ANTENNA_4
*1245 ANTENNA_5
*1246 ANTENNA_6
*1247 ANTENNA_7
*1248 ANTENNA_8
*1249 ANTENNA_9
*1250 FILLER_0_0_109
*1251 FILLER_0_0_113
*1252 FILLER_0_0_125
*1253 FILLER_0_0_141
*1254 FILLER_0_0_149
*1255 FILLER_0_0_15
*1256 FILLER_0_0_162
*1257 FILLER_0_0_169
*1258 FILLER_0_0_181
*1259 FILLER_0_0_197
*1260 FILLER_0_0_209
*1261 FILLER_0_0_221
*1262 FILLER_0_0_225
*1263 FILLER_0_0_237
*1264 FILLER_0_0_249
*1265 FILLER_0_0_253
*1266 FILLER_0_0_265
*1267 FILLER_0_0_27
*1268 FILLER_0_0_277
*1269 FILLER_0_0_281
*1270 FILLER_0_0_29
*1271 FILLER_0_0_293
*1272 FILLER_0_0_3
*1273 FILLER_0_0_305
*1274 FILLER_0_0_309
*1275 FILLER_0_0_321
*1276 FILLER_0_0_333
*1277 FILLER_0_0_41
*1278 FILLER_0_0_53
*1279 FILLER_0_0_57
*1280 FILLER_0_0_69
*1281 FILLER_0_0_81
*1282 FILLER_0_0_85
*1283 FILLER_0_0_97
*1284 FILLER_0_10_104
*1285 FILLER_0_10_129
*1286 FILLER_0_10_137
*1287 FILLER_0_10_148
*1288 FILLER_0_10_15
*1289 FILLER_0_10_159
*1290 FILLER_0_10_165
*1291 FILLER_0_10_184
*1292 FILLER_0_10_216
*1293 FILLER_0_10_228
*1294 FILLER_0_10_236
*1295 FILLER_0_10_251
*1296 FILLER_0_10_27
*1297 FILLER_0_10_289
*1298 FILLER_0_10_3
*1299 FILLER_0_10_300
*1300 FILLER_0_10_316
*1301 FILLER_0_10_329
*1302 FILLER_0_10_36
*1303 FILLER_0_10_61
*1304 FILLER_0_10_85
*1305 FILLER_0_10_89
*1306 FILLER_0_11_11
*1307 FILLER_0_11_110
*1308 FILLER_0_11_113
*1309 FILLER_0_11_117
*1310 FILLER_0_11_148
*1311 FILLER_0_11_160
*1312 FILLER_0_11_190
*1313 FILLER_0_11_201
*1314 FILLER_0_11_237
*1315 FILLER_0_11_257
*1316 FILLER_0_11_265
*1317 FILLER_0_11_275
*1318 FILLER_0_11_279
*1319 FILLER_0_11_290
*1320 FILLER_0_11_3
*1321 FILLER_0_11_312
*1322 FILLER_0_11_332
*1323 FILLER_0_11_57
*1324 FILLER_0_11_61
*1325 FILLER_0_11_93
*1326 FILLER_0_11_97
*1327 FILLER_0_12_110
*1328 FILLER_0_12_114
*1329 FILLER_0_12_128
*1330 FILLER_0_12_141
*1331 FILLER_0_12_145
*1332 FILLER_0_12_162
*1333 FILLER_0_12_166
*1334 FILLER_0_12_179
*1335 FILLER_0_12_195
*1336 FILLER_0_12_206
*1337 FILLER_0_12_211
*1338 FILLER_0_12_221
*1339 FILLER_0_12_227
*1340 FILLER_0_12_232
*1341 FILLER_0_12_245
*1342 FILLER_0_12_253
*1343 FILLER_0_12_260
*1344 FILLER_0_12_29
*1345 FILLER_0_12_290
*1346 FILLER_0_12_298
*1347 FILLER_0_12_3
*1348 FILLER_0_12_321
*1349 FILLER_0_12_332
*1350 FILLER_0_12_60
*1351 FILLER_0_12_83
*1352 FILLER_0_12_89
*1353 FILLER_0_12_97
*1354 FILLER_0_13_105
*1355 FILLER_0_13_111
*1356 FILLER_0_13_125
*1357 FILLER_0_13_153
*1358 FILLER_0_13_164
*1359 FILLER_0_13_183
*1360 FILLER_0_13_200
*1361 FILLER_0_13_225
*1362 FILLER_0_13_229
*1363 FILLER_0_13_241
*1364 FILLER_0_13_246
*1365 FILLER_0_13_264
*1366 FILLER_0_13_27
*1367 FILLER_0_13_274
*1368 FILLER_0_13_288
*1369 FILLER_0_13_298
*1370 FILLER_0_13_3
*1371 FILLER_0_13_316
*1372 FILLER_0_13_43
*1373 FILLER_0_13_48
*1374 FILLER_0_13_74
*1375 FILLER_0_13_87
*1376 FILLER_0_14_162
*1377 FILLER_0_14_180
*1378 FILLER_0_14_209
*1379 FILLER_0_14_226
*1380 FILLER_0_14_239
*1381 FILLER_0_14_250
*1382 FILLER_0_14_253
*1383 FILLER_0_14_27
*1384 FILLER_0_14_288
*1385 FILLER_0_14_29
*1386 FILLER_0_14_3
*1387 FILLER_0_14_302
*1388 FILLER_0_14_318
*1389 FILLER_0_14_332
*1390 FILLER_0_14_80
*1391 FILLER_0_14_85
*1392 FILLER_0_15_103
*1393 FILLER_0_15_117
*1394 FILLER_0_15_149
*1395 FILLER_0_15_15
*1396 FILLER_0_15_153
*1397 FILLER_0_15_158
*1398 FILLER_0_15_19
*1399 FILLER_0_15_190
*1400 FILLER_0_15_198
*1401 FILLER_0_15_218
*1402 FILLER_0_15_225
*1403 FILLER_0_15_251
*1404 FILLER_0_15_281
*1405 FILLER_0_15_290
*1406 FILLER_0_15_3
*1407 FILLER_0_15_300
*1408 FILLER_0_15_315
*1409 FILLER_0_15_330
*1410 FILLER_0_15_334
*1411 FILLER_0_15_34
*1412 FILLER_0_15_42
*1413 FILLER_0_15_49
*1414 FILLER_0_15_62
*1415 FILLER_0_15_66
*1416 FILLER_0_15_83
*1417 FILLER_0_15_89
*1418 FILLER_0_15_99
*1419 FILLER_0_16_100
*1420 FILLER_0_16_111
*1421 FILLER_0_16_130
*1422 FILLER_0_16_138
*1423 FILLER_0_16_148
*1424 FILLER_0_16_158
*1425 FILLER_0_16_166
*1426 FILLER_0_16_171
*1427 FILLER_0_16_180
*1428 FILLER_0_16_206
*1429 FILLER_0_16_22
*1430 FILLER_0_16_233
*1431 FILLER_0_16_250
*1432 FILLER_0_16_267
*1433 FILLER_0_16_29
*1434 FILLER_0_16_3
*1435 FILLER_0_16_313
*1436 FILLER_0_16_33
*1437 FILLER_0_16_332
*1438 FILLER_0_16_37
*1439 FILLER_0_16_61
*1440 FILLER_0_16_67
*1441 FILLER_0_16_81
*1442 FILLER_0_16_85
*1443 FILLER_0_17_125
*1444 FILLER_0_17_140
*1445 FILLER_0_17_162
*1446 FILLER_0_17_169
*1447 FILLER_0_17_186
*1448 FILLER_0_17_211
*1449 FILLER_0_17_246
*1450 FILLER_0_17_275
*1451 FILLER_0_17_279
*1452 FILLER_0_17_281
*1453 FILLER_0_17_293
*1454 FILLER_0_17_297
*1455 FILLER_0_17_3
*1456 FILLER_0_17_331
*1457 FILLER_0_17_46
*1458 FILLER_0_17_54
*1459 FILLER_0_17_57
*1460 FILLER_0_18_111
*1461 FILLER_0_18_150
*1462 FILLER_0_18_163
*1463 FILLER_0_18_167
*1464 FILLER_0_18_17
*1465 FILLER_0_18_187
*1466 FILLER_0_18_195
*1467 FILLER_0_18_197
*1468 FILLER_0_18_207
*1469 FILLER_0_18_239
*1470 FILLER_0_18_249
*1471 FILLER_0_18_260
*1472 FILLER_0_18_273
*1473 FILLER_0_18_279
*1474 FILLER_0_18_299
*1475 FILLER_0_18_3
*1476 FILLER_0_18_309
*1477 FILLER_0_18_327
*1478 FILLER_0_18_40
*1479 FILLER_0_18_44
*1480 FILLER_0_18_62
*1481 FILLER_0_18_75
*1482 FILLER_0_18_83
*1483 FILLER_0_18_85
*1484 FILLER_0_18_94
*1485 FILLER_0_19_111
*1486 FILLER_0_19_117
*1487 FILLER_0_19_139
*1488 FILLER_0_19_169
*1489 FILLER_0_19_182
*1490 FILLER_0_19_188
*1491 FILLER_0_19_213
*1492 FILLER_0_19_221
*1493 FILLER_0_19_281
*1494 FILLER_0_19_3
*1495 FILLER_0_19_302
*1496 FILLER_0_19_306
*1497 FILLER_0_19_31
*1498 FILLER_0_19_331
*1499 FILLER_0_19_55
*1500 FILLER_0_1_105
*1501 FILLER_0_1_111
*1502 FILLER_0_1_113
*1503 FILLER_0_1_125
*1504 FILLER_0_1_145
*1505 FILLER_0_1_15
*1506 FILLER_0_1_167
*1507 FILLER_0_1_181
*1508 FILLER_0_1_203
*1509 FILLER_0_1_218
*1510 FILLER_0_1_225
*1511 FILLER_0_1_243
*1512 FILLER_0_1_255
*1513 FILLER_0_1_267
*1514 FILLER_0_1_27
*1515 FILLER_0_1_279
*1516 FILLER_0_1_281
*1517 FILLER_0_1_293
*1518 FILLER_0_1_3
*1519 FILLER_0_1_305
*1520 FILLER_0_1_317
*1521 FILLER_0_1_329
*1522 FILLER_0_1_39
*1523 FILLER_0_1_51
*1524 FILLER_0_1_55