*SPEF "ieee 1481-1999"
*DESIGN "tt_um_ss_register"
*DATE "05:13:35 Saturday April 13, 2024"
*VENDOR "The OpenROAD Project"
*PROGRAM "OpenROAD"
*VERSION "0889970d1790a2617e69f253221b8bd7626e51dc"
*DESIGN_FLOW "NAME_SCOPE LOCAL" "PIN_CAP NONE"
*DIVIDER /
*DELIMITER :
*BUS_DELIMITER []
*T_UNIT 1 NS
*C_UNIT 1 PF
*R_UNIT 1 OHM
*L_UNIT 1 HENRY

*NAME_MAP
*3 clk
*4 ena
*5 rst_n
*6 ui_in[0]
*7 ui_in[1]
*8 ui_in[2]
*9 ui_in[3]
*10 ui_in[4]
*11 ui_in[5]
*12 ui_in[6]
*13 ui_in[7]
*14 uio_in[0]
*15 uio_in[1]
*16 uio_in[2]
*17 uio_in[3]
*18 uio_in[4]
*19 uio_in[5]
*20 uio_in[6]
*21 uio_in[7]
*22 net5
*23 net6
*24 net7
*25 net8
*26 net9
*27 net10
*28 net11
*29 net12
*30 net13
*31 net14
*32 net15
*33 net16
*34 net17
*35 net18
*36 net19
*37 net20
*38 uo_out[0]
*39 net21
*40 net22
*41 net23
*42 net24
*43 net25
*44 net26
*45 net27
*46 U1\.data_out
*47 U1\.data_reg\[0\]
*48 U1\.data_reg\[1\]
*49 U1\.data_reg\[2\]
*50 U1\.data_reg\[3\]
*51 _00_
*52 _01_
*53 _02_
*54 _03_
*55 _04_
*56 _05_
*57 _06_
*58 _07_
*59 _08_
*60 _09_
*61 _10_
*62 _11_
*63 _12_
*64 clknet_0_clk
*65 clknet_1_0__leaf_clk
*66 clknet_1_1__leaf_clk
*67 net1
*68 net2
*69 net28
*70 net29
*71 net3
*72 net30
*73 net4
*74 FILLER_0_0_109
*75 FILLER_0_0_113
*76 FILLER_0_0_125
*77 FILLER_0_0_137
*78 FILLER_0_0_141
*79 FILLER_0_0_15
*80 FILLER_0_0_153
*81 FILLER_0_0_165
*82 FILLER_0_0_169
*83 FILLER_0_0_181
*84 FILLER_0_0_193
*85 FILLER_0_0_197
*86 FILLER_0_0_209
*87 FILLER_0_0_221
*88 FILLER_0_0_225
*89 FILLER_0_0_237
*90 FILLER_0_0_249
*91 FILLER_0_0_253
*92 FILLER_0_0_265
*93 FILLER_0_0_27
*94 FILLER_0_0_277
*95 FILLER_0_0_281
*96 FILLER_0_0_29
*97 FILLER_0_0_293
*98 FILLER_0_0_3
*99 FILLER_0_0_305
*100 FILLER_0_0_309
*101 FILLER_0_0_321
*102 FILLER_0_0_333
*103 FILLER_0_0_41
*104 FILLER_0_0_53
*105 FILLER_0_0_57
*106 FILLER_0_0_69
*107 FILLER_0_0_81
*108 FILLER_0_0_85
*109 FILLER_0_0_97
*110 FILLER_0_10_109
*111 FILLER_0_10_121
*112 FILLER_0_10_133
*113 FILLER_0_10_139
*114 FILLER_0_10_141
*115 FILLER_0_10_15
*116 FILLER_0_10_153
*117 FILLER_0_10_165
*118 FILLER_0_10_177
*119 FILLER_0_10_189
*120 FILLER_0_10_195
*121 FILLER_0_10_197
*122 FILLER_0_10_209
*123 FILLER_0_10_221
*124 FILLER_0_10_233
*125 FILLER_0_10_245
*126 FILLER_0_10_251
*127 FILLER_0_10_253
*128 FILLER_0_10_265
*129 FILLER_0_10_27
*130 FILLER_0_10_277
*131 FILLER_0_10_289
*132 FILLER_0_10_29
*133 FILLER_0_10_3
*134 FILLER_0_10_301
*135 FILLER_0_10_307
*136 FILLER_0_10_309
*137 FILLER_0_10_321
*138 FILLER_0_10_333
*139 FILLER_0_10_41
*140 FILLER_0_10_53
*141 FILLER_0_10_65
*142 FILLER_0_10_77
*143 FILLER_0_10_83
*144 FILLER_0_10_85
*145 FILLER_0_10_97
*146 FILLER_0_11_105
*147 FILLER_0_11_111
*148 FILLER_0_11_113
*149 FILLER_0_11_125
*150 FILLER_0_11_137
*151 FILLER_0_11_149
*152 FILLER_0_11_15
*153 FILLER_0_11_161
*154 FILLER_0_11_167
*155 FILLER_0_11_169
*156 FILLER_0_11_181
*157 FILLER_0_11_193
*158 FILLER_0_11_205
*159 FILLER_0_11_217
*160 FILLER_0_11_223
*161 FILLER_0_11_225
*162 FILLER_0_11_237
*163 FILLER_0_11_249
*164 FILLER_0_11_261
*165 FILLER_0_11_27
*166 FILLER_0_11_273
*167 FILLER_0_11_279
*168 FILLER_0_11_281
*169 FILLER_0_11_293
*170 FILLER_0_11_3
*171 FILLER_0_11_305
*172 FILLER_0_11_317
*173 FILLER_0_11_329
*174 FILLER_0_11_39
*175 FILLER_0_11_51
*176 FILLER_0_11_55
*177 FILLER_0_11_57
*178 FILLER_0_11_69
*179 FILLER_0_11_81
*180 FILLER_0_11_93
*181 FILLER_0_12_109
*182 FILLER_0_12_121
*183 FILLER_0_12_133
*184 FILLER_0_12_139
*185 FILLER_0_12_141
*186 FILLER_0_12_15
*187 FILLER_0_12_153
*188 FILLER_0_12_165
*189 FILLER_0_12_177
*190 FILLER_0_12_189
*191 FILLER_0_12_195
*192 FILLER_0_12_197
*193 FILLER_0_12_209
*194 FILLER_0_12_221
*195 FILLER_0_12_233
*196 FILLER_0_12_245
*197 FILLER_0_12_251
*198 FILLER_0_12_253
*199 FILLER_0_12_265
*200 FILLER_0_12_27
*201 FILLER_0_12_277
*202 FILLER_0_12_289
*203 FILLER_0_12_29
*204 FILLER_0_12_3
*205 FILLER_0_12_301
*206 FILLER_0_12_307
*207 FILLER_0_12_309
*208 FILLER_0_12_321
*209 FILLER_0_12_333
*210 FILLER_0_12_41
*211 FILLER_0_12_53
*212 FILLER_0_12_65
*213 FILLER_0_12_77
*214 FILLER_0_12_83
*215 FILLER_0_12_85
*216 FILLER_0_12_97
*217 FILLER_0_13_105
*218 FILLER_0_13_111
*219 FILLER_0_13_113
*220 FILLER_0_13_125
*221 FILLER_0_13_137
*222 FILLER_0_13_149
*223 FILLER_0_13_15
*224 FILLER_0_13_161
*225 FILLER_0_13_167
*226 FILLER_0_13_169
*227 FILLER_0_13_181
*228 FILLER_0_13_193
*229 FILLER_0_13_205
*230 FILLER_0_13_217
*231 FILLER_0_13_223
*232 FILLER_0_13_225
*233 FILLER_0_13_237
*234 FILLER_0_13_249
*235 FILLER_0_13_261
*236 FILLER_0_13_27
*237 FILLER_0_13_273
*238 FILLER_0_13_279
*239 FILLER_0_13_281
*240 FILLER_0_13_293
*241 FILLER_0_13_3
*242 FILLER_0_13_305
*243 FILLER_0_13_317
*244 FILLER_0_13_329
*245 FILLER_0_13_39
*246 FILLER_0_13_51
*247 FILLER_0_13_55
*248 FILLER_0_13_57
*249 FILLER_0_13_69
*250 FILLER_0_13_81
*251 FILLER_0_13_93
*252 FILLER_0_14_109
*253 FILLER_0_14_121
*254 FILLER_0_14_133
*255 FILLER_0_14_139
*256 FILLER_0_14_141
*257 FILLER_0_14_15
*258 FILLER_0_14_153
*259 FILLER_0_14_165
*260 FILLER_0_14_177
*261 FILLER_0_14_189
*262 FILLER_0_14_195
*263 FILLER_0_14_197
*264 FILLER_0_14_209
*265 FILLER_0_14_221
*266 FILLER_0_14_233
*267 FILLER_0_14_245
*268 FILLER_0_14_251
*269 FILLER_0_14_253
*270 FILLER_0_14_265
*271 FILLER_0_14_27
*272 FILLER_0_14_277
*273 FILLER_0_14_289
*274 FILLER_0_14_29
*275 FILLER_0_14_3
*276 FILLER_0_14_301
*277 FILLER_0_14_307
*278 FILLER_0_14_309
*279 FILLER_0_14_321
*280 FILLER_0_14_333
*281 FILLER_0_14_41
*282 FILLER_0_14_53
*283 FILLER_0_14_65
*284 FILLER_0_14_77
*285 FILLER_0_14_83
*286 FILLER_0_14_85
*287 FILLER_0_14_97
*288 FILLER_0_15_105
*289 FILLER_0_15_111
*290 FILLER_0_15_113
*291 FILLER_0_15_125
*292 FILLER_0_15_137
*293 FILLER_0_15_149
*294 FILLER_0_15_15
*295 FILLER_0_15_161
*296 FILLER_0_15_167
*297 FILLER_0_15_169
*298 FILLER_0_15_181
*299 FILLER_0_15_193
*300 FILLER_0_15_205
*301 FILLER_0_15_217
*302 FILLER_0_15_223
*303 FILLER_0_15_225
*304 FILLER_0_15_237
*305 FILLER_0_15_249
*306 FILLER_0_15_261
*307 FILLER_0_15_27
*308 FILLER_0_15_273
*309 FILLER_0_15_279
*310 FILLER_0_15_281
*311 FILLER_0_15_293
*312 FILLER_0_15_3
*313 FILLER_0_15_305
*314 FILLER_0_15_317
*315 FILLER_0_15_329
*316 FILLER_0_15_39
*317 FILLER_0_15_51
*318 FILLER_0_15_55
*319 FILLER_0_15_57
*320 FILLER_0_15_69
*321 FILLER_0_15_81
*322 FILLER_0_15_93
*323 FILLER_0_16_109
*324 FILLER_0_16_121
*325 FILLER_0_16_133
*326 FILLER_0_16_139
*327 FILLER_0_16_141
*328 FILLER_0_16_15
*329 FILLER_0_16_153
*330 FILLER_0_16_165
*331 FILLER_0_16_177
*332 FILLER_0_16_189
*333 FILLER_0_16_195
*334 FILLER_0_16_197
*335 FILLER_0_16_209
*336 FILLER_0_16_221
*337 FILLER_0_16_233
*338 FILLER_0_16_245
*339 FILLER_0_16_251
*340 FILLER_0_16_253
*341 FILLER_0_16_265
*342 FILLER_0_16_27
*343 FILLER_0_16_277
*344 FILLER_0_16_289
*345 FILLER_0_16_29
*346 FILLER_0_16_3
*347 FILLER_0_16_301
*348 FILLER_0_16_307
*349 FILLER_0_16_309
*350 FILLER_0_16_321
*351 FILLER_0_16_333
*352 FILLER_0_16_41
*353 FILLER_0_16_53
*354 FILLER_0_16_65
*355 FILLER_0_16_77
*356 FILLER_0_16_83
*357 FILLER_0_16_85
*358 FILLER_0_16_97
*359 FILLER_0_17_105
*360 FILLER_0_17_111
*361 FILLER_0_17_113
*362 FILLER_0_17_125
*363 FILLER_0_17_137
*364 FILLER_0_17_149
*365 FILLER_0_17_15
*366 FILLER_0_17_161
*367 FILLER_0_17_167
*368 FILLER_0_17_169
*369 FILLER_0_17_181
*370 FILLER_0_17_193
*371 FILLER_0_17_205
*372 FILLER_0_17_217
*373 FILLER_0_17_223
*374 FILLER_0_17_225
*375 FILLER_0_17_237
*376 FILLER_0_17_249
*377 FILLER_0_17_261
*378 FILLER_0_17_27
*379 FILLER_0_17_273
*380 FILLER_0_17_279
*381 FILLER_0_17_281
*382 FILLER_0_17_293
*383 FILLER_0_17_3
*384 FILLER_0_17_305
*385 FILLER_0_17_317
*386 FILLER_0_17_329
*387 FILLER_0_17_39
*388 FILLER_0_17_51
*389 FILLER_0_17_55
*390 FILLER_0_17_57
*391 FILLER_0_17_69
*392 FILLER_0_17_81
*393 FILLER_0_17_93
*394 FILLER_0_18_109
*395 FILLER_0_18_121
*396 FILLER_0_18_133
*397 FILLER_0_18_139
*398 FILLER_0_18_141
*399 FILLER_0_18_15
*400 FILLER_0_18_153
*401 FILLER_0_18_165
*402 FILLER_0_18_177
*403 FILLER_0_18_189
*404 FILLER_0_18_195
*405 FILLER_0_18_197
*406 FILLER_0_18_209
*407 FILLER_0_18_221
*408 FILLER_0_18_233
*409 FILLER_0_18_245
*410 FILLER_0_18_251
*411 FILLER_0_18_253
*412 FILLER_0_18_265
*413 FILLER_0_18_27
*414 FILLER_0_18_277
*415 FILLER_0_18_289
*416 FILLER_0_18_29
*417 FILLER_0_18_3
*418 FILLER_0_18_301
*419 FILLER_0_18_307
*420 FILLER_0_18_309
*421 FILLER_0_18_321
*422 FILLER_0_18_333
*423 FILLER_0_18_41
*424 FILLER_0_18_53
*425 FILLER_0_18_65
*426 FILLER_0_18_77
*427 FILLER_0_18_83
*428 FILLER_0_18_85
*429 FILLER_0_18_97
*430 FILLER_0_19_105
*431 FILLER_0_19_111
*432 FILLER_0_19_113
*433 FILLER_0_19_125
*434 FILLER_0_19_137
*435 FILLER_0_19_149
*436 FILLER_0_19_15
*437 FILLER_0_19_161
*438 FILLER_0_19_167
*439 FILLER_0_19_169
*440 FILLER_0_19_181
*441 FILLER_0_19_193
*442 FILLER_0_19_205
*443 FILLER_0_19_217
*444 FILLER_0_19_223
*445 FILLER_0_19_225
*446 FILLER_0_19_237
*447 FILLER_0_19_249
*448 FILLER_0_19_261
*449 FILLER_0_19_27
*450 FILLER_0_19_273
*451 FILLER_0_19_279
*452 FILLER_0_19_281
*453 FILLER_0_19_293
*454 FILLER_0_19_3
*455 FILLER_0_19_305
*456 FILLER_0_19_317
*457 FILLER_0_19_329
*458 FILLER_0_19_39
*459 FILLER_0_19_51
*460 FILLER_0_19_55
*461 FILLER_0_19_57
*462 FILLER_0_19_69
*463 FILLER_0_19_81
*464 FILLER_0_19_93
*465 FILLER_0_1_105
*466 FILLER_0_1_111
*467 FILLER_0_1_113
*468 FILLER_0_1_125
*469 FILLER_0_1_137
*470 FILLER_0_1_149
*471 FILLER_0_1_15
*472 FILLER_0_1_161
*473 FILLER_0_1_167
*474 FILLER_0_1_169
*475 FILLER_0_1_181
*476 FILLER_0_1_193
*477 FILLER_0_1_205
*478 FILLER_0_1_217
*479 FILLER_0_1_223
*480 FILLER_0_1_225
*481 FILLER_0_1_237
*482 FILLER_0_1_249
*483 FILLER_0_1_261
*484 FILLER_0_1_27
*485 FILLER_0_1_273
*486 FILLER_0_1_279
*487 FILLER_0_1_281
*488 FILLER_0_1_293
*489 FILLER_0_1_3
*490 FILLER_0_1_305
*491 FILLER_0_1_317
*492 FILLER_0_1_329
*493 FILLER_0_1_39
*494 FILLER_0_1_51
*495 FILLER_0_1_55
*496 FILLER_0_1_57
*497 FILLER_0_1_69
*498 FILLER_0_1_81
*499 FILLER_0_1_93
*500 FILLER_0_20_109
*501 FILLER_0_20_121
*502 FILLER_0_20_133
*503 FILLER_0_20_139
*504 FILLER_0_20_141
*505 FILLER_0_20_15
*506 FILLER_0_20_153
*507 FILLER_0_20_165
*508 FILLER_0_20_177
*509 FILLER_0_20_189
*510 FILLER_0_20_195
*511 FILLER_0_20_197
*512 FILLER_0_20_209
*513 FILLER_0_20_221
*514 FILLER_0_20_233
*515 FILLER_0_20_245
*516 FILLER_0_20_251
*517 FILLER_0_20_253
*518 FILLER_0_20_265
*519 FILLER_0_20_27
*520 FILLER_0_20_277
*521 FILLER_0_20_289
*522 FILLER_0_20_29
*523 FILLER_0_20_3
*524 FILLER_0_20_301
*525 FILLER_0_20_307
*526 FILLER_0_20_309
*527 FILLER_0_20_321
*528 FILLER_0_20_333
*529 FILLER_0_20_41
*530 FILLER_0_20_53
*531 FILLER_0_20_65
*532 FILLER_0_20_77
*533 FILLER_0_20_83
*534 FILLER_0_20_85
*535 FILLER_0_20_97
*536 FILLER_0_21_105
*537 FILLER_0_21_111
*538 FILLER_0_21_113
*539 FILLER_0_21_125
*540 FILLER_0_21_137
*541 FILLER_0_21_149
*542 FILLER_0_21_15
*543 FILLER_0_21_161
*544 FILLER_0_21_167
*545 FILLER_0_21_169
*546 FILLER_0_21_181
*547 FILLER_0_21_193
*548 FILLER_0_21_205
*549 FILLER_0_21_217
*550 FILLER_0_21_223
*551 FILLER_0_21_225
*552 FILLER_0_21_237
*553 FILLER_0_21_249
*554 FILLER_0_21_261
*555 FILLER_0_21_27
*556 FILLER_0_21_273
*557 FILLER_0_21_279
*558 FILLER_0_21_281
*559 FILLER_0_21_293
*560 FILLER_0_21_3
*561 FILLER_0_21_305
*562 FILLER_0_21_317
*563 FILLER_0_21_329
*564 FILLER_0_21_39
*565 FILLER_0_21_51
*566 FILLER_0_21_55
*567 FILLER_0_21_57
*568 FILLER_0_21_69
*569 FILLER_0_21_81
*570 FILLER_0_21_93
*571 FILLER_0_22_109
*572 FILLER_0_22_121
*573 FILLER_0_22_133
*574 FILLER_0_22_139
*575 FILLER_0_22_141
*576 FILLER_0_22_15
*577 FILLER_0_22_153
*578 FILLER_0_22_165
*579 FILLER_0_22_177
*580 FILLER_0_22_189
*581 FILLER_0_22_195
*582 FILLER_0_22_197
*583 FILLER_0_22_209
*584 FILLER_0_22_221
*585 FILLER_0_22_233
*586 FILLER_0_22_245
*587 FILLER_0_22_251
*588 FILLER_0_22_253
*589 FILLER_0_22_265
*590 FILLER_0_22_27
*591 FILLER_0_22_277
*592 FILLER_0_22_289
*593 FILLER_0_22_29
*594 FILLER_0_22_3
*595 FILLER_0_22_301
*596 FILLER_0_22_307
*597 FILLER_0_22_309
*598 FILLER_0_22_321
*599 FILLER_0_22_333
*600 FILLER_0_22_41
*601 FILLER_0_22_53
*602 FILLER_0_22_65
*603 FILLER_0_22_77
*604 FILLER_0_22_83
*605 FILLER_0_22_85
*606 FILLER_0_22_97
*607 FILLER_0_23_105
*608 FILLER_0_23_111
*609 FILLER_0_23_113
*610 FILLER_0_23_125
*611 FILLER_0_23_137
*612 FILLER_0_23_149
*613 FILLER_0_23_15
*614 FILLER_0_23_161
*615 FILLER_0_23_167
*616 FILLER_0_23_169
*617 FILLER_0_23_181
*618 FILLER_0_23_193
*619 FILLER_0_23_205
*620 FILLER_0_23_217
*621 FILLER_0_23_223
*622 FILLER_0_23_225
*623 FILLER_0_23_237
*624 FILLER_0_23_249
*625 FILLER_0_23_261
*626 FILLER_0_23_27
*627 FILLER_0_23_273
*628 FILLER_0_23_279
*629 FILLER_0_23_281
*630 FILLER_0_23_293
*631 FILLER_0_23_3
*632 FILLER_0_23_305
*633 FILLER_0_23_317
*634 FILLER_0_23_329
*635 FILLER_0_23_39
*636 FILLER_0_23_51
*637 FILLER_0_23_55
*638 FILLER_0_23_57
*639 FILLER_0_23_69
*640 FILLER_0_23_81
*641 FILLER_0_23_93
*642 FILLER_0_24_109
*643 FILLER_0_24_121
*644 FILLER_0_24_133
*645 FILLER_0_24_139
*646 FILLER_0_24_141
*647 FILLER_0_24_15
*648 FILLER_0_24_153
*649 FILLER_0_24_165
*650 FILLER_0_24_177
*651 FILLER_0_24_189
*652 FILLER_0_24_195
*653 FILLER_0_24_197
*654 FILLER_0_24_209
*655 FILLER_0_24_221
*656 FILLER_0_24_233
*657 FILLER_0_24_245
*658 FILLER_0_24_251
*659 FILLER_0_24_253
*660 FILLER_0_24_265
*661 FILLER_0_24_27
*662 FILLER_0_24_277
*663 FILLER_0_24_289
*664 FILLER_0_24_29
*665 FILLER_0_24_3
*666 FILLER_0_24_301
*667 FILLER_0_24_307
*668 FILLER_0_24_309
*669 FILLER_0_24_321
*670 FILLER_0_24_333
*671 FILLER_0_24_41
*672 FILLER_0_24_53
*673 FILLER_0_24_65
*674 FILLER_0_24_77
*675 FILLER_0_24_83
*676 FILLER_0_24_85
*677 FILLER_0_24_97
*678 FILLER_0_25_105
*679 FILLER_0_25_111
*680 FILLER_0_25_113
*681 FILLER_0_25_125
*682 FILLER_0_25_137
*683 FILLER_0_25_149
*684 FILLER_0_25_15
*685 FILLER_0_25_161
*686 FILLER_0_25_167
*687 FILLER_0_25_169
*688 FILLER_0_25_181
*689 FILLER_0_25_193
*690 FILLER_0_25_205
*691 FILLER_0_25_217
*692 FILLER_0_25_223
*693 FILLER_0_25_225
*694 FILLER_0_25_237
*695 FILLER_0_25_249
*696 FILLER_0_25_261
*697 FILLER_0_25_27
*698 FILLER_0_25_273
*699 FILLER_0_25_279
*700 FILLER_0_25_281
*701 FILLER_0_25_293
*702 FILLER_0_25_3
*703 FILLER_0_25_305
*704 FILLER_0_25_317
*705 FILLER_0_25_329
*706 FILLER_0_25_39
*707 FILLER_0_25_51
*708 FILLER_0_25_55
*709 FILLER_0_25_57
*710 FILLER_0_25_69
*711 FILLER_0_25_81
*712 FILLER_0_25_93
*713 FILLER_0_26_109
*714 FILLER_0_26_121
*715 FILLER_0_26_133
*716 FILLER_0_26_139
*717 FILLER_0_26_141
*718 FILLER_0_26_15
*719 FILLER_0_26_153
*720 FILLER_0_26_165
*721 FILLER_0_26_177
*722 FILLER_0_26_189
*723 FILLER_0_26_195
*724 FILLER_0_26_197
*725 FILLER_0_26_209
*726 FILLER_0_26_221
*727 FILLER_0_26_233
*728 FILLER_0_26_245
*729 FILLER_0_26_251
*730 FILLER_0_26_253
*731 FILLER_0_26_265
*732 FILLER_0_26_27
*733 FILLER_0_26_277
*734 FILLER_0_26_289
*735 FILLER_0_26_29
*736 FILLER_0_26_3
*737 FILLER_0_26_301
*738 FILLER_0_26_307
*739 FILLER_0_26_309
*740 FILLER_0_26_321
*741 FILLER_0_26_333
*742 FILLER_0_26_41
*743 FILLER_0_26_53
*744 FILLER_0_26_65
*745 FILLER_0_26_77
*746 FILLER_0_26_83
*747 FILLER_0_26_85
*748 FILLER_0_26_97
*749 FILLER_0_27_105
*750 FILLER_0_27_111
*751 FILLER_0_27_113
*752 FILLER_0_27_125
*753 FILLER_0_27_137
*754 FILLER_0_27_149
*755 FILLER_0_27_15
*756 FILLER_0_27_161
*757 FILLER_0_27_167
*758 FILLER_0_27_169
*759 FILLER_0_27_181
*760 FILLER_0_27_193
*761 FILLER_0_27_205
*762 FILLER_0_27_217
*763 FILLER_0_27_223
*764 FILLER_0_27_225
*765 FILLER_0_27_237
*766 FILLER_0_27_249
*767 FILLER_0_27_261
*768 FILLER_0_27_27
*769 FILLER_0_27_273
*770 FILLER_0_27_279
*771 FILLER_0_27_281
*772 FILLER_0_27_293
*773 FILLER_0_27_3
*774 FILLER_0_27_305
*775 FILLER_0_27_317
*776 FILLER_0_27_329
*777 FILLER_0_27_39
*778 FILLER_0_27_51
*779 FILLER_0_27_55
*780 FILLER_0_27_57
*781 FILLER_0_27_69
*782 FILLER_0_27_81
*783 FILLER_0_27_93
*784 FILLER_0_28_109
*785 FILLER_0_28_121
*786 FILLER_0_28_133
*787 FILLER_0_28_139
*788 FILLER_0_28_141
*789 FILLER_0_28_15
*790 FILLER_0_28_153
*791 FILLER_0_28_165
*792 FILLER_0_28_177
*793 FILLER_0_28_189
*794 FILLER_0_28_195
*795 FILLER_0_28_197
*796 FILLER_0_28_209
*797 FILLER_0_28_221
*798 FILLER_0_28_233
*799 FILLER_0_28_245
*800 FILLER_0_28_251
*801 FILLER_0_28_253
*802 FILLER_0_28_265
*803 FILLER_0_28_27
*804 FILLER_0_28_277
*805 FILLER_0_28_289
*806 FILLER_0_28_29
*807 FILLER_0_28_3
*808 FILLER_0_28_301
*809 FILLER_0_28_307
*810 FILLER_0_28_309
*811 FILLER_0_28_321
*812 FILLER_0_28_333
*813 FILLER_0_28_41
*814 FILLER_0_28_53
*815 FILLER_0_28_65
*816 FILLER_0_28_77
*817 FILLER_0_28_83
*818 FILLER_0_28_85
*819 FILLER_0_28_97
*820 FILLER_0_29_105
*821 FILLER_0_29_111
*822 FILLER_0_29_113
*823 FILLER_0_29_125
*824 FILLER_0_29_137
*825 FILLER_0_29_149
*826 FILLER_0_29_15
*827 FILLER_0_29_161
*828 FILLER_0_29_167
*829 FILLER_0_29_169
*830 FILLER_0_29_181
*831 FILLER_0_29_193
*832 FILLER_0_29_205
*833 FILLER_0_29_217
*834 FILLER_0_29_223
*835 FILLER_0_29_225
*836 FILLER_0_29_237
*837 FILLER_0_29_249
*838 FILLER_0_29_261
*839 FILLER_0_29_27
*840 FILLER_0_29_273
*841 FILLER_0_29_279
*842 FILLER_0_29_281
*843 FILLER_0_29_293
*844 FILLER_0_29_3
*845 FILLER_0_29_305
*846 FILLER_0_29_317
*847 FILLER_0_29_329
*848 FILLER_0_29_39
*849 FILLER_0_29_51
*850 FILLER_0_29_55
*851 FILLER_0_29_57
*852 FILLER_0_29_69
*853 FILLER_0_29_81
*854 FILLER_0_29_93
*855 FILLER_0_2_109
*856 FILLER_0_2_121
*857 FILLER_0_2_133
*858 FILLER_0_2_139
*859 FILLER_0_2_141
*860 FILLER_0_2_15
*861 FILLER_0_2_153
*862 FILLER_0_2_165
*863 FILLER_0_2_177
*864 FILLER_0_2_189
*865 FILLER_0_2_195
*866 FILLER_0_2_197
*867 FILLER_0_2_209
*868 FILLER_0_2_221
*869 FILLER_0_2_233
*870 FILLER_0_2_245
*871 FILLER_0_2_251
*872 FILLER_0_2_253
*873 FILLER_0_2_265
*874 FILLER_0_2_27
*875 FILLER_0_2_277
*876 FILLER_0_2_289
*877 FILLER_0_2_29
*878 FILLER_0_2_3
*879 FILLER_0_2_301
*880 FILLER_0_2_307
*881 FILLER_0_2_309
*882 FILLER_0_2_321
*883 FILLER_0_2_333
*884 FILLER_0_2_41
*885 FILLER_0_2_53
*886 FILLER_0_2_65
*887 FILLER_0_2_77
*888 FILLER_0_2_83
*889 FILLER_0_2_85
*890 FILLER_0_2_97
*891 FILLER_0_30_109
*892 FILLER_0_30_121
*893 FILLER_0_30_133
*894 FILLER_0_30_139
*895 FILLER_0_30_141
*896 FILLER_0_30_15
*897 FILLER_0_30_153
*898 FILLER_0_30_165
*899 FILLER_0_30_177
*900 FILLER_0_30_189
*901 FILLER_0_30_195
*902 FILLER_0_30_197
*903 FILLER_0_30_209
*904 FILLER_0_30_221
*905 FILLER_0_30_233
*906 FILLER_0_30_245
*907 FILLER_0_30_251
*908 FILLER_0_30_253
*909 FILLER_0_30_265
*910 FILLER_0_30_27
*911 FILLER_0_30_277
*912 FILLER_0_30_289
*913 FILLER_0_30_29
*914 FILLER_0_30_3
*915 FILLER_0_30_301
*916 FILLER_0_30_307
*917 FILLER_0_30_309
*918 FILLER_0_30_321
*919 FILLER_0_30_333
*920 FILLER_0_30_41
*921 FILLER_0_30_53
*922 FILLER_0_30_65
*923 FILLER_0_30_77
*924 FILLER_0_30_83
*925 FILLER_0_30_85
*926 FILLER_0_30_97
*927 FILLER_0_31_105
*928 FILLER_0_31_111
*929 FILLER_0_31_113
*930 FILLER_0_31_125
*931 FILLER_0_31_137
*932 FILLER_0_31_149
*933 FILLER_0_31_15
*934 FILLER_0_31_161
*935 FILLER_0_31_167
*936 FILLER_0_31_169
*937 FILLER_0_31_181
*938 FILLER_0_31_193
*939 FILLER_0_31_205
*940 FILLER_0_31_217
*941 FILLER_0_31_223
*942 FILLER_0_31_225
*943 FILLER_0_31_237
*944 FILLER_0_31_249
*945 FILLER_0_31_261
*946 FILLER_0_31_27
*947 FILLER_0_31_273
*948 FILLER_0_31_279
*949 FILLER_0_31_281
*950 FILLER_0_31_293
*951 FILLER_0_31_3
*952 FILLER_0_31_305
*953 FILLER_0_31_317
*954 FILLER_0_31_329
*955 FILLER_0_31_39
*956 FILLER_0_31_51
*957 FILLER_0_31_55
*958 FILLER_0_31_57
*959 FILLER_0_31_69
*960 FILLER_0_31_81
*961 FILLER_0_31_93
*962 FILLER_0_32_109
*963 FILLER_0_32_121
*964 FILLER_0_32_133
*965 FILLER_0_32_139
*966 FILLER_0_32_141
*967 FILLER_0_32_15
*968 FILLER_0_32_153
*969 FILLER_0_32_165
*970 FILLER_0_32_177
*971 FILLER_0_32_189
*972 FILLER_0_32_195
*973 FILLER_0_32_197
*974 FILLER_0_32_209
*975 FILLER_0_32_221
*976 FILLER_0_32_233
*977 FILLER_0_32_245
*978 FILLER_0_32_251
*979 FILLER_0_32_253
*980 FILLER_0_32_265
*981 FILLER_0_32_27
*982 FILLER_0_32_277
*983 FILLER_0_32_289
*984 FILLER_0_32_29
*985 FILLER_0_32_3
*986 FILLER_0_32_301
*987 FILLER_0_32_307
*988 FILLER_0_32_309
*989 FILLER_0_32_321
*990 FILLER_0_32_333
*991 FILLER_0_32_41
*992 FILLER_0_32_53
*993 FILLER_0_32_65
*994 FILLER_0_32_77
*995 FILLER_0_32_83
*996 FILLER_0_32_85
*997 FILLER_0_32_97
*998 FILLER_0_33_105
*999 FILLER_0_33_111
*1000 FILLER_0_33_113
*1001 FILLER_0_33_125
*1002 FILLER_0_33_137
*1003 FILLER_0_33_149
*1004 FILLER_0_33_15
*1005 FILLER_0_33_161
*1006 FILLER_0_33_167
*1007 FILLER_0_33_169
*1008 FILLER_0_33_181
*1009 FILLER_0_33_193
*1010 FILLER_0_33_205
*1011 FILLER_0_33_217
*1012 FILLER_0_33_223
*1013 FILLER_0_33_225
*1014 FILLER_0_33_237
*1015 FILLER_0_33_249
*1016 FILLER_0_33_261
*1017 FILLER_0_33_27
*1018 FILLER_0_33_273
*1019 FILLER_0_33_279
*1020 FILLER_0_33_281
*1021 FILLER_0_33_293
*1022 FILLER_0_33_3
*1023 FILLER_0_33_305
*1024 FILLER_0_33_317
*1025 FILLER_0_33_329
*1026 FILLER_0_33_39
*1027 FILLER_0_33_51
*1028 FILLER_0_33_55
*1029 FILLER_0_33_57
*1030 FILLER_0_33_69
*1031 FILLER_0_33_81
*1032 FILLER_0_33_93
*1033 FILLER_0_34_109
*1034 FILLER_0_34_121
*1035 FILLER_0_34_133
*1036 FILLER_0_34_139
*1037 FILLER_0_34_141
*1038 FILLER_0_34_15
*1039 FILLER_0_34_153
*1040 FILLER_0_34_165
*1041 FILLER_0_34_177
*1042 FILLER_0_34_189
*1043 FILLER_0_34_195
*1044 FILLER_0_34_197
*1045 FILLER_0_34_209
*1046 FILLER_0_34_221
*1047 FILLER_0_34_233
*1048 FILLER_0_34_245
*1049 FILLER_0_34_251
*1050 FILLER_0_34_253
*1051 FILLER_0_34_265
*1052 FILLER_0_34_27
*1053 FILLER_0_34_287
*1054 FILLER_0_34_29
*1055 FILLER_0_34_295
*1056 FILLER_0_34_3
*1057 FILLER_0_34_305
*1058 FILLER_0_34_317
*1059 FILLER_0_34_327
*1060 FILLER_0_34_41
*1061 FILLER_0_34_53
*1062 FILLER_0_34_65
*1063 FILLER_0_34_77
*1064 FILLER_0_34_83
*1065 FILLER_0_34_85
*1066 FILLER_0_34_97
*1067 FILLER_0_35_105
*1068 FILLER_0_35_111
*1069 FILLER_0_35_113
*1070 FILLER_0_35_125
*1071 FILLER_0_35_137
*1072 FILLER_0_35_149
*1073 FILLER_0_35_15
*1074 FILLER_0_35_161
*1075 FILLER_0_35_167
*1076 FILLER_0_35_169
*1077 FILLER_0_35_181
*1078 FILLER_0_35_193
*1079 FILLER_0_35_205
*1080 FILLER_0_35_217
*1081 FILLER_0_35_223
*1082 FILLER_0_35_225
*1083 FILLER_0_35_237
*1084 FILLER_0_35_249
*1085 FILLER_0_35_261
*1086 FILLER_0_35_267
*1087 FILLER_0_35_27
*1088 FILLER_0_35_271
*1089 FILLER_0_35_275
*1090 FILLER_0_35_279
*1091 FILLER_0_35_281
*1092 FILLER_0_35_293
*1093 FILLER_0_35_3
*1094 FILLER_0_35_39
*1095 FILLER_0_35_51
*1096 FILLER_0_35_55
*1097 FILLER_0_35_57
*1098 FILLER_0_35_69
*1099 FILLER_0_35_81
*1100 FILLER_0_35_93
*1101 FILLER_0_36_109
*1102 FILLER_0_36_121
*1103 FILLER_0_36_133
*1104 FILLER_0_36_139
*1105 FILLER_0_36_141
*1106 FILLER_0_36_15
*1107 FILLER_0_36_153
*1108 FILLER_0_36_165
*1109 FILLER_0_36_177
*1110 FILLER_0_36_189
*1111 FILLER_0_36_195
*1112 FILLER_0_36_197
*1113 FILLER_0_36_209
*1114 FILLER_0_36_221
*1115 FILLER_0_36_233
*1116 FILLER_0_36_245
*1117 FILLER_0_36_251
*1118 FILLER_0_36_253
*1119 FILLER_0_36_27
*1120 FILLER_0_36_29
*1121 FILLER_0_36_3
*1122 FILLER_0_36_309
*1123 FILLER_0_36_41
*1124 FILLER_0_36_53
*1125 FILLER_0_36_65
*1126 FILLER_0_36_77
*1127 FILLER_0_36_83
*1128 FILLER_0_36_85
*1129 FILLER_0_36_97
*1130 FILLER_0_37_105
*1131 FILLER_0_37_111
*1132 FILLER_0_37_113
*1133 FILLER_0_37_125
*1134 FILLER_0_37_137
*1135 FILLER_0_37_149
*1136 FILLER_0_37_15
*1137 FILLER_0_37_161
*1138 FILLER_0_37_167
*1139 FILLER_0_37_169
*1140 FILLER_0_37_181
*1141 FILLER_0_37_193
*1142 FILLER_0_37_205
*1143 FILLER_0_37_217
*1144 FILLER_0_37_223
*1145 FILLER_0_37_225
*1146 FILLER_0_37_231
*1147 FILLER_0_37_235
*1148 FILLER_0_37_247
*1149 FILLER_0_37_259
*1150 FILLER_0_37_27
*1151 FILLER_0_37_290
*1152 FILLER_0_37_3
*1153 FILLER_0_37_39
*1154 FILLER_0_37_51
*1155 FILLER_0_37_55
*1156 FILLER_0_37_57
*1157 FILLER_0_37_69
*1158 FILLER_0_37_81
*1159 FILLER_0_37_93
*1160 FILLER_0_38_10
*1161 FILLER_0_38_102
*1162 FILLER_0_38_106
*1163 FILLER_0_38_110
*1164 FILLER_0_38_113
*1165 FILLER_0_38_118
*1166 FILLER_0_38_122
*1167 FILLER_0_38_126
*1168 FILLER_0_38_130
*1169 FILLER_0_38_134
*1170 FILLER_0_38_14
*1171 FILLER_0_38_144
*1172 FILLER_0_38_150
*1173 FILLER_0_38_154
*1174 FILLER_0_38_158
*1175 FILLER_0_38_162
*1176 FILLER_0_38_166
*1177 FILLER_0_38_169
*1178 FILLER_0_38_174
*1179 FILLER_0_38_178
*1180 FILLER_0_38_18
*1181 FILLER_0_38_182
*1182 FILLER_0_38_194
*1183 FILLER_0_38_197
*1184 FILLER_0_38_209
*1185 FILLER_0_38_22
*1186 FILLER_0_38_221
*1187 FILLER_0_38_225
*1188 FILLER_0_38_229
*1189 FILLER_0_38_236
*1190 FILLER_0_38_248
*1191 FILLER_0_38_253
*1192 FILLER_0_38_265
*1193 FILLER_0_38_277
*1194 FILLER_0_38_281
*1195 FILLER_0_38_289
*1196 FILLER_0_38_313
*1197 FILLER_0_38_32
*1198 FILLER_0_38_327
*1199 FILLER_0_38_38
*1200 FILLER_0_38_42
*1201 FILLER_0_38_46
*1202 FILLER_0_38_50
*1203 FILLER_0_38_54
*1204 FILLER_0_38_57
*1205 FILLER_0_38_6
*1206 FILLER_0_38_62
*1207 FILLER_0_38_66
*1208 FILLER_0_38_70
*1209 FILLER_0_38_74
*1210 FILLER_0_38_78
*1211 FILLER_0_38_88
*1212 FILLER_0_38_94
*1213 FILLER_0_38_98
*1214 FILLER_0_3_105
*1215 FILLER_0_3_111
*1216 FILLER_0_3_113
*1217 FILLER_0_3_125
*1218 FILLER_0_3_137
*1219 FILLER_0_3_149
*1220 FILLER_0_3_15
*1221 FILLER_0_3_161
*1222 FILLER_0_3_167
*1223 FILLER_0_3_169
*1224 FILLER_0_3_181
*1225 FILLER_0_3_193
*1226 FILLER_0_3_205
*1227 FILLER_0_3_217
*1228 FILLER_0_3_223
*1229 FILLER_0_3_225
*1230 FILLER_0_3_237
*1231 FILLER_0_3_249
*1232 FILLER_0_3_261
*1233 FILLER_0_3_27
*1234 FILLER_0_3_273
*1235 FILLER_0_3_279
*1236 FILLER_0_3_281
*1237 FILLER_0_3_293
*1238 FILLER_0_3_3
*1239 FILLER_0_3_305
*1240 FILLER_0_3_317
*1241 FILLER_0_3_329
*1242 FILLER_0_3_39
*1243 FILLER_0_3_51
*1244 FILLER_0_3_55
*1245 FILLER_0_3_57
*1246 FILLER_0_3_69
*1247 FILLER_0_3_81
*1248 FILLER_0_3_93
*1249 FILLER_0_4_109
*1250 FILLER_0_4_121
*1251 FILLER_0_4_133
*1252 FILLER_0_4_139
*1253 FILLER_0_4_141
*1254 FILLER_0_4_15
*1255 FILLER_0_4_153
*1256 FILLER_0_4_165
*1257 FILLER_0_4_177
*1258 FILLER_0_4_189
*1259 FILLER_0_4_195
*1260 FILLER_0_4_197
*1261 FILLER_0_4_209
*1262 FILLER_0_4_221
*1263 FILLER_0_4_233
*1264 FILLER_0_4_245
*1265 FILLER_0_4_251
*1266 FILLER_0_4_253
*1267 FILLER_0_4_265
*1268 FILLER_0_4_27
*1269 FILLER_0_4_277
*1270 FILLER_0_4_289
*1271 FILLER_0_4_29
*1272 FILLER_0_4_3
*1273 FILLER_0_4_301
*1274 FILLER_0_4_307
*1275 FILLER_0_4_309
*1276 FILLER_0_4_321
*1277 FILLER_0_4_333
*1278 FILLER_0_4_41
*1279 FILLER_0_4_53
*1280 FILLER_0_4_65
*1281 FILLER_0_4_77
*1282 FILLER_0_4_83
*1283 FILLER_0_4_85
*1284 FILLER_0_4_97
*1285 FILLER_0_5_105
*1286 FILLER_0_5_111
*1287 FILLER_0_5_113
*1288 FILLER_0_5_125
*1289 FILLER_0_5_137
*1290 FILLER_0_5_149
*1291 FILLER_0_5_15
*1292 FILLER_0_5_161
*1293 FILLER_0_5_167
*1294 FILLER_0_5_169
*1295 FILLER_0_5_181
*1296 FILLER_0_5_193
*1297 FILLER_0_5_205
*1298 FILLER_0_5_217
*1299 FILLER_0_5_223
*1300 FILLER_0_5_225
*1301 FILLER_0_5_237
*1302 FILLER_0_5_249
*1303 FILLER_0_5_261
*1304 FILLER_0_5_27
*1305 FILLER_0_5_273
*1306 FILLER_0_5_279
*1307 FILLER_0_5_281
*1308 FILLER_0_5_293
*1309 FILLER_0_5_3
*1310 FILLER_0_5_305
*1311 FILLER_0_5_317
*1312 FILLER_0_5_329
*1313 FILLER_0_5_39
*1314 FILLER_0_5_51
*1315 FILLER_0_5_55
*1316 FILLER_0_5_57
*1317 FILLER_0_5_69
*1318 FILLER_0_5_81
*1319 FILLER_0_5_93
*1320 FILLER_0_6_109
*1321 FILLER_0_6_121
*1322 FILLER_0_6_133
*1323 FILLER_0_6_139
*1324 FILLER_0_6_141
*1325 FILLER_0_6_15
*1326 FILLER_0_6_153
*1327 FILLER_0_6_165
*1328 FILLER_0_6_177
*1329 FILLER_0_6_189
*1330 FILLER_0_6_195
*1331 FILLER_0_6_197
*1332 FILLER_0_6_209
*1333 FILLER_0_6_221
*1334 FILLER_0_6_233
*1335 FILLER_0_6_245
*1336 FILLER_0_6_251
*1337 FILLER_0_6_253
*1338 FILLER_0_6_265
*1339 FILLER_0_6_27
*1340 FILLER_0_6_277
*1341 FILLER_0_6_289
*1342 FILLER_0_6_29
*1343 FILLER_0_6_3
*1344 FILLER_0_6_301
*1345 FILLER_0_6_307
*1346 FILLER_0_6_309
*1347 FILLER_0_6_321
*1348 FILLER_0_6_333
*1349 FILLER_0_6_41
*1350 FILLER_0_6_53
*1351 FILLER_0_6_65
*1352 FILLER_0_6_77
*1353 FILLER_0_6_83
*1354 FILLER_0_6_85
*1355 FILLER_0_6_97
*1356 FILLER_0_7_105
*1357 FILLER_0_7_111
*1358 FILLER_0_7_113
*1359 FILLER_0_7_125
*1360 FILLER_0_7_137
*1361 FILLER_0_7_149
*1362 FILLER_0_7_15
*1363 FILLER_0_7_161
*1364 FILLER_0_7_167
*1365 FILLER_0_7_169
*1366 FILLER_0_7_181
*1367 FILLER_0_7_193
*1368 FILLER_0_7_205
*1369 FILLER_0_7_217
*1370 FILLER_0_7_223
*1371 FILLER_0_7_225
*1372 FILLER_0_7_237
*1373 FILLER_0_7_249
*1374 FILLER_0_7_261
*1375 FILLER_0_7_27
*1376 FILLER_0_7_273
*1377 FILLER_0_7_279
*1378 FILLER_0_7_281
*1379 FILLER_0_7_293
*1380 FILLER_0_7_3
*1381 FILLER_0_7_305
*1382 FILLER_0_7_317
*1383 FILLER_0_7_329
*1384 FILLER_0_7_39
*1385 FILLER_0_7_51
*1386 FILLER_0_7_55
*1387 FILLER_0_7_57
*1388 FILLER_0_7_69
*1389 FILLER_0_7_81
*1390 FILLER_0_7_93
*1391 FILLER_0_8_109
*1392 FILLER_0_8_121
*1393 FILLER_0_8_133
*1394 FILLER_0_8_139
*1395 FILLER_0_8_141
*1396 FILLER_0_8_15
*1397 FILLER_0_8_153
*1398 FILLER_0_8_165
*1399 FILLER_0_8_177
*1400 FILLER_0_8_189
*1401 FILLER_0_8_195
*1402 FILLER_0_8_197
*1403 FILLER_0_8_209
*1404 FILLER_0_8_221
*1405 FILLER_0_8_233
*1406 FILLER_0_8_245
*1407 FILLER_0_8_251
*1408 FILLER_0_8_253
*1409 FILLER_0_8_265
*1410 FILLER_0_8_27
*1411 FILLER_0_8_277
*1412 FILLER_0_8_289
*1413 FILLER_0_8_29
*1414 FILLER_0_8_3
*1415 FILLER_0_8_301
*1416 FILLER_0_8_307
*1417 FILLER_0_8_309
*1418 FILLER_0_8_321
*1419 FILLER_0_8_333
*1420 FILLER_0_8_41
*1421 FILLER_0_8_53
*1422 FILLER_0_8_65
*1423 FILLER_0_8_77
*1424 FILLER_0_8_83
*1425 FILLER_0_8_85
*1426 FILLER_0_8_97
*1427 FILLER_0_9_105
*1428 FILLER_0_9_111
*1429 FILLER_0_9_113
*1430 FILLER_0_9_125
*1431 FILLER_0_9_137
*1432 FILLER_0_9_149
*1433 FILLER_0_9_15
*1434 FILLER_0_9_161
*1435 FILLER_0_9_167
*1436 FILLER_0_9_169
*1437 FILLER_0_9_181
*1438 FILLER_0_9_193
*1439 FILLER_0_9_205
*1440 FILLER_0_9_217
*1441 FILLER_0_9_223
*1442 FILLER_0_9_225
*1443 FILLER_0_9_237
*1444 FILLER_0_9_249
*1445 FILLER_0_9_261
*1446 FILLER_0_9_27
*1447 FILLER_0_9_273
*1448 FILLER_0_9_279
*1449 FILLER_0_9_281
*1450 FILLER_0_9_293
*1451 FILLER_0_9_3
*1452 FILLER_0_9_305
*1453 FILLER_0_9_317
*1454 FILLER_0_9_329
*1455 FILLER_0_9_39
*1456 FILLER_0_9_51
*1457 FILLER_0_9_55
*1458 FILLER_0_9_57
*1459 FILLER_0_9_69
*1460 FILLER_0_9_81
*1461 FILLER_0_9_93
*1462 PHY_EDGE_ROW_0_Left_39