*SPEF "ieee 1481-1999"
*DESIGN "tt_um_tomkeddie_a"
*DATE "11:11:11 Fri 11 11, 1111"
*VENDOR "OpenRCX"
*PROGRAM "Parallel Extraction"
*VERSION "1.0"
*DESIGN_FLOW "NAME_SCOPE LOCAL" "PIN_CAP NONE"
*DIVIDER /
*DELIMITER :
*BUS_DELIMITER []
*T_UNIT 1 NS
*C_UNIT 1 PF
*R_UNIT 1 OHM
*L_UNIT 1 HENRY

*NAME_MAP
*3 clk
*4 ena
*5 rst_n
*6 ui_in[0]
*7 ui_in[1]
*8 ui_in[2]
*9 ui_in[3]
*10 ui_in[4]
*11 ui_in[5]
*12 ui_in[6]
*13 ui_in[7]
*14 uio_in[0]
*15 uio_in[1]
*16 uio_in[2]
*17 uio_in[3]
*18 uio_in[4]
*19 uio_in[5]
*20 uio_in[6]
*21 uio_in[7]
*22 uio_oe[0]
*23 uio_oe[1]
*24 uio_oe[2]
*25 uio_oe[3]
*26 uio_oe[4]
*27 uio_oe[5]
*28 uio_oe[6]
*29 uio_oe[7]
*30 uio_out[0]
*31 uio_out[1]
*32 uio_out[2]
*33 uio_out[3]
*34 uio_out[4]
*35 uio_out[5]
*36 net11
*37 net12
*38 uo_out[0]
*39 uo_out[1]
*40 uo_out[2]
*41 uo_out[3]
*42 uo_out[4]
*43 uo_out[5]
*44 uo_out[6]
*45 uo_out[7]
*46 _0000_
*47 _0001_
*48 _0002_
*49 _0003_
*50 _0004_
*51 _0005_
*52 _0006_
*53 _0007_
*54 _0008_
*55 _0009_
*56 _0010_
*57 _0011_
*58 _0012_
*59 _0013_
*60 _0014_
*61 _0015_
*62 _0016_
*63 _0017_
*64 _0018_
*65 _0019_
*66 _0020_
*67 _0021_
*68 _0022_
*69 _0023_
*70 _0024_
*71 _0025_
*72 _0026_
*73 _0027_
*74 _0028_
*75 _0029_
*76 _0030_
*77 _0031_
*78 _0032_
*79 _0033_
*80 _0034_
*81 _0035_
*82 _0036_
*83 _0037_
*84 _0038_
*85 _0039_
*86 _0040_
*87 _0041_
*88 _0042_
*89 _0043_
*90 _0044_
*91 _0045_
*92 _0046_
*93 _0047_
*94 _0048_
*95 _0049_
*96 _0050_
*97 _0051_
*98 _0052_
*99 _0053_
*100 _0054_
*101 _0055_
*102 _0056_
*103 _0057_
*104 _0058_
*105 _0059_
*106 _0060_
*107 _0061_
*108 _0062_
*109 _0063_
*110 _0064_
*111 _0065_
*112 _0066_
*113 _0067_
*114 _0068_
*115 _0069_
*116 _0070_
*117 _0071_
*118 _0072_
*119 _0073_
*120 _0074_
*121 _0075_
*122 _0076_
*123 _0077_
*124 _0078_
*125 _0079_
*126 _0080_
*127 _0081_
*128 _0082_
*129 _0083_
*130 _0084_
*131 _0085_
*132 _0086_
*133 _0087_
*134 _0088_
*135 _0089_
*136 _0090_
*137 _0091_
*138 _0092_
*139 _0093_
*140 _0094_
*141 _0095_
*142 _0096_
*143 _0097_
*144 _0098_
*145 _0099_
*146 _0100_
*147 _0101_
*148 _0102_
*149 _0103_
*150 _0104_
*151 _0105_
*152 _0106_
*153 _0107_
*154 _0108_
*155 _0109_
*156 _0110_
*157 _0111_
*158 _0112_
*159 _0113_
*160 _0114_
*161 _0115_
*162 _0116_
*163 _0117_
*164 _0118_
*165 _0119_
*166 _0120_
*167 _0121_
*168 _0122_
*169 _0123_
*170 _0124_
*171 _0125_
*172 _0126_
*173 _0127_
*174 _0128_
*175 _0129_
*176 _0130_
*177 _0131_
*178 _0132_
*179 _0133_
*180 _0134_
*181 _0135_
*182 _0136_
*183 _0137_
*184 _0138_
*185 _0139_
*186 _0140_
*187 _0141_
*188 _0142_
*189 _0143_
*190 _0144_
*191 _0145_
*192 _0146_
*193 _0147_
*194 _0148_
*195 _0149_
*196 _0150_
*197 _0151_
*198 _0152_
*199 _0153_
*200 _0154_
*201 _0155_
*202 _0156_
*203 _0157_
*204 _0158_
*205 _0159_
*206 _0160_
*207 _0161_
*208 _0162_
*209 _0163_
*210 _0164_
*211 _0165_
*212 _0166_
*213 _0167_
*214 _0168_
*215 _0169_
*216 _0170_
*217 _0171_
*218 _0172_
*219 _0173_
*220 _0174_
*221 _0175_
*222 _0176_
*223 _0177_
*224 _0178_
*225 _0179_
*226 _0180_
*227 _0181_
*228 _0182_
*229 _0183_
*230 _0184_
*231 _0185_
*232 _0186_
*233 _0187_
*234 _0188_
*235 _0189_
*236 _0190_
*237 _0191_
*238 _0192_
*239 _0193_
*240 _0194_
*241 _0195_
*242 _0196_
*243 _0197_
*244 _0198_
*245 _0199_
*246 _0200_
*247 _0201_
*248 _0202_
*249 _0203_
*250 _0204_
*251 _0205_
*252 _0206_
*253 _0207_
*254 _0208_
*255 _0209_
*256 _0210_
*257 _0211_
*258 _0212_
*259 _0213_
*260 _0214_
*261 _0215_
*262 _0216_
*263 _0217_
*264 _0218_
*265 _0219_
*266 _0220_
*267 _0221_
*268 _0222_
*269 _0223_
*270 _0224_
*271 _0225_
*272 _0226_
*273 _0227_
*274 _0228_
*275 _0229_
*276 _0230_
*277 _0231_
*278 _0232_
*279 _0233_
*280 _0234_
*281 _0235_
*282 _0236_
*283 _0237_
*284 _0238_
*285 _0239_
*286 _0240_
*287 _0241_
*288 _0242_
*289 _0243_
*290 _0244_
*291 _0245_
*292 _0246_
*293 _0247_
*294 _0248_
*295 _0249_
*296 _0250_
*297 _0251_
*298 _0252_
*299 _0253_
*300 _0254_
*301 _0255_
*302 _0256_
*303 _0257_
*304 _0258_
*305 _0259_
*306 _0260_
*307 _0261_
*308 _0262_
*309 _0263_
*310 _0264_
*311 _0265_
*312 _0266_
*313 _0267_
*314 _0268_
*315 _0269_
*316 _0270_
*317 _0271_
*318 _0272_
*319 _0273_
*320 _0274_
*321 _0275_
*322 _0276_
*323 _0277_
*324 _0278_
*325 _0279_
*326 _0280_
*327 _0281_
*328 _0282_
*329 _0283_
*330 _0284_
*331 _0285_
*332 _0286_
*333 _0287_
*334 _0288_
*335 _0289_
*336 _0290_
*337 _0291_
*338 _0292_
*339 _0293_
*340 _0294_
*341 _0295_
*342 _0296_
*343 _0297_
*344 _0298_
*345 _0299_
*346 _0300_
*347 _0301_
*348 _0302_
*349 _0303_
*350 _0304_
*351 _0305_
*352 _0306_
*353 _0307_
*354 _0308_
*355 _0309_
*356 _0310_
*357 _0311_
*358 _0312_
*359 _0313_
*360 _0314_
*361 _0315_
*362 _0316_
*363 _0317_
*364 _0318_
*365 _0319_
*366 _0320_
*367 _0321_
*368 _0322_
*369 _0323_
*370 _0324_
*371 _0325_
*372 _0326_
*373 _0327_
*374 _0328_
*375 _0329_
*376 _0330_
*377 _0331_
*378 _0332_
*379 _0333_
*380 _0334_
*381 _0335_
*382 _0336_
*383 _0337_
*384 _0338_
*385 _0339_
*386 _0340_
*387 _0341_
*388 _0342_
*389 _0343_
*390 _0344_
*391 _0345_
*392 _0346_
*393 _0347_
*394 _0348_
*395 _0349_
*396 _0350_
*397 _0351_
*398 _0352_
*399 _0353_
*400 _0354_
*401 _0355_
*402 _0356_
*403 _0357_
*404 _0358_
*405 _0359_
*406 _0360_
*407 _0361_
*408 _0362_
*409 _0363_
*410 _0364_
*411 _0365_
*412 _0366_
*413 _0367_
*414 _0368_
*415 _0369_
*416 _0370_
*417 _0371_
*418 _0372_
*419 _0373_
*420 _0374_
*421 _0375_
*422 _0376_
*423 _0377_
*424 _0378_
*425 _0379_
*426 _0380_
*427 _0381_
*428 _0382_
*429 _0383_
*430 _0384_
*431 _0385_
*432 _0386_
*433 _0387_
*434 _0388_
*435 _0389_
*436 _0390_
*437 _0391_
*438 _0392_
*439 _0393_
*440 _0394_
*441 _0395_
*442 _0396_
*443 _0397_
*444 _0398_
*445 _0399_
*446 _0400_
*447 _0401_
*448 _0402_
*449 _0403_
*450 _0404_
*451 _0405_
*452 _0406_
*453 _0407_
*454 _0408_
*455 _0409_
*456 _0410_
*457 _0411_
*458 _0412_
*459 _0413_
*460 _0414_
*461 _0415_
*462 _0416_
*463 _0417_
*464 _0418_
*465 _0419_
*466 _0420_
*467 _0421_
*468 _0422_
*469 _0423_
*470 _0424_
*471 _0425_
*472 _0426_
*473 _0427_
*474 _0428_
*475 _0429_
*476 _0430_
*477 _0431_
*478 _0432_
*479 _0433_
*480 _0434_
*481 _0435_
*482 _0436_
*483 _0437_
*484 _0438_
*485 _0439_
*486 _0440_
*487 _0441_
*488 _0442_
*489 _0443_
*490 _0444_
*491 _0445_
*492 _0446_
*493 _0447_
*494 _0448_
*495 _0449_
*496 _0450_
*497 _0451_
*498 _0452_
*499 _0453_
*500 _0454_
*501 _0455_
*502 _0456_
*503 _0457_
*504 _0458_
*505 _0459_
*506 _0460_
*507 _0461_
*508 _0462_
*509 _0463_
*510 _0464_
*511 _0465_
*512 _0466_
*513 _0467_
*514 _0468_
*515 _0469_
*516 _0470_
*517 _0471_
*518 _0472_
*519 _0473_
*520 _0474_
*521 _0475_
*522 _0476_
*523 _0477_
*524 _0478_
*525 _0479_
*526 _0480_
*527 _0481_
*528 _0482_
*529 _0483_
*530 _0484_
*531 _0485_
*532 _0486_
*533 _0487_
*534 _0488_
*535 _0489_
*536 _0490_
*537 _0491_
*538 _0492_
*539 _0493_
*540 _0494_
*541 _0495_
*542 _0496_
*543 _0497_
*544 _0498_
*545 _0499_
*546 _0500_
*547 _0501_
*548 _0502_
*549 _0503_
*550 _0504_
*551 _0505_
*552 _0506_
*553 _0507_
*554 _0508_
*555 _0509_
*556 _0510_
*557 _0511_
*558 _0512_
*559 _0513_
*560 _0514_
*561 _0515_
*562 _0516_
*563 _0517_
*564 _0518_
*565 _0519_
*566 _0520_
*567 _0521_
*568 _0522_
*569 _0523_
*570 _0524_
*571 _0525_
*572 _0526_
*573 _0527_
*574 _0528_
*575 _0529_
*576 _0530_
*577 _0531_
*578 _0532_
*579 _0533_
*580 _0534_
*581 _0535_
*582 _0536_
*583 _0537_
*584 _0538_
*585 _0539_
*586 _0540_
*587 _0541_
*588 _0542_
*589 _0543_
*590 _0544_
*591 _0545_
*592 _0546_
*593 _0547_
*594 _0548_
*595 _0549_
*596 _0550_
*597 _0551_
*598 _0552_
*599 _0553_
*600 _0554_
*601 _0555_
*602 _0556_
*603 _0557_
*604 _0558_
*605 _0559_
*606 _0560_
*607 _0561_
*608 _0562_
*609 _0563_
*610 _0564_
*611 _0565_
*612 _0566_
*613 _0567_
*614 _0568_
*615 _0569_
*616 _0570_
*617 _0571_
*618 _0572_
*619 _0573_
*620 _0574_
*621 _0575_
*622 _0576_
*623 _0577_
*624 _0578_
*625 _0579_
*626 _0580_
*627 _0581_
*628 _0582_
*629 _0583_
*630 _0584_
*631 _0585_
*632 _0586_
*633 _0587_
*634 _0588_
*635 _0589_
*636 _0590_
*637 _0591_
*638 _0592_
*639 _0593_
*640 _0594_
*641 _0595_
*642 _0596_
*643 _0597_
*644 _0598_
*645 _0599_
*646 _0600_
*647 _0601_
*648 _0602_
*649 _0603_
*650 _0604_
*651 _0605_
*652 _0606_
*653 _0607_
*654 _0608_
*655 _0609_
*656 _0610_
*657 _0611_
*658 _0612_
*659 _0613_
*660 _0614_
*661 _0615_
*662 _0616_
*663 _0617_
*664 _0618_
*665 _0619_
*666 _0620_
*667 _0621_
*668 _0622_
*669 _0623_
*670 _0624_
*671 _0625_
*672 _0626_
*673 _0627_
*674 _0628_
*675 _0629_
*676 _0630_
*677 _0631_
*678 _0632_
*679 _0633_
*680 _0634_
*681 _0635_
*682 _0636_
*683 _0637_
*684 _0638_
*685 _0639_
*686 _0640_
*687 _0641_
*688 _0642_
*689 _0643_
*690 _0644_
*691 _0645_
*692 _0646_
*693 _0647_
*694 _0648_
*695 _0649_
*696 _0650_
*697 _0651_
*698 _0652_
*699 _0653_
*700 _0654_
*701 _0655_
*702 _0656_
*703 _0657_
*704 _0658_
*705 _0659_
*706 _0660_
*707 _0661_
*708 _0662_
*709 _0663_
*710 _0664_
*711 _0665_
*712 _0666_
*713 _0667_
*714 _0668_
*715 _0669_
*716 _0670_
*717 _0671_
*718 _0672_
*719 _0673_
*720 _0674_
*721 _0675_
*722 _0676_
*723 _0677_
*724 _0678_
*725 _0679_
*726 _0680_
*727 _0681_
*728 _0682_
*729 _0683_
*730 _0684_
*731 _0685_
*732 _0686_
*733 _0687_
*734 _0688_
*735 _0689_
*736 _0690_
*737 _0691_
*738 _0692_
*739 _0693_
*740 _0694_
*741 _0695_
*742 _0696_
*743 _0697_
*744 _0698_
*745 _0699_
*746 _0700_
*747 _0701_
*748 _0702_
*749 _0703_
*750 _0704_
*751 _0705_
*752 _0706_
*753 _0707_
*754 _0708_
*755 _0709_
*756 _0710_
*757 _0711_
*758 _0712_
*759 _0713_
*760 _0714_
*761 _0715_
*762 _0716_
*763 _0717_
*764 _0718_
*765 _0719_
*766 _0720_
*767 _0721_
*768 _0722_
*769 _0723_
*770 _0724_
*771 _0725_
*772 _0726_
*773 _0727_
*774 _0728_
*775 _0729_
*776 _0730_
*777 _0731_
*778 _0732_
*779 _0733_
*780 _0734_
*781 _0735_
*782 _0736_
*783 _0737_
*784 _0738_
*785 _0739_
*786 _0740_
*787 _0741_
*788 _0742_
*789 _0743_
*790 _0744_
*791 _0745_
*792 _0746_
*793 _0747_
*794 _0748_
*795 _0749_
*796 _0750_
*797 _0751_
*798 _0752_
*799 _0753_
*800 _0754_
*801 _0755_
*802 _0756_
*803 _0757_
*804 _0758_
*805 _0759_
*806 _0760_
*807 _0761_
*808 _0762_
*809 _0763_
*810 _0764_
*811 _0765_
*812 _0766_
*813 _0767_
*814 _0768_
*815 _0769_
*816 _0770_
*817 _0771_
*818 _0772_
*819 _0773_
*820 _0774_
*821 _0775_
*822 _0776_
*823 _0777_
*824 _0778_
*825 _0779_
*826 _0780_
*827 _0781_
*828 _0782_
*829 _0783_
*830 _0784_
*831 _0785_
*832 _0786_
*833 _0787_
*834 _0788_
*835 _0789_
*836 _0790_
*837 _0791_
*838 _0792_
*839 _0793_
*840 _0794_
*841 _0795_
*842 _0796_
*843 _0797_
*844 _0798_
*845 _0799_
*846 _0800_
*847 _0801_
*848 _0802_
*849 _0803_
*850 _0804_
*851 _0805_
*852 _0806_
*853 _0807_
*854 _0808_
*855 _0809_
*856 _0810_
*857 _0811_
*858 _0812_
*859 _0813_
*860 _0814_
*861 _0815_
*862 _0816_
*863 _0817_
*864 _0818_
*865 _0819_
*866 _0820_
*867 _0821_
*868 _0822_
*869 _0823_
*870 _0824_
*871 _0825_
*872 _0826_
*873 _0827_
*874 _0828_
*875 _0829_
*876 _0830_
*877 _0831_
*878 _0832_
*879 _0833_
*880 _0834_
*881 _0835_
*882 _0836_
*883 _0837_
*884 _0838_
*885 _0839_
*886 _0840_
*887 _0841_
*888 _0842_
*889 _0843_
*890 _0844_
*891 _0845_
*892 _0846_
*893 _0847_
*894 _0848_
*895 _0849_
*896 _0850_
*897 _0851_
*898 _0852_
*899 _0853_
*900 _0854_
*901 _0855_
*902 _0856_
*903 _0857_
*904 _0858_
*905 _0859_
*906 _0860_
*907 _0861_
*908 _0862_
*909 _0863_
*910 _0864_
*911 _0865_
*912 _0866_
*913 _0867_
*914 _0868_
*915 _0869_
*916 _0870_
*917 _0871_
*918 _0872_
*919 _0873_
*920 _0874_
*921 _0875_
*922 _0876_
*923 _0877_
*924 _0878_
*925 _0879_
*926 _0880_
*927 _0881_
*928 _0882_
*929 _0883_
*930 _0884_
*931 _0885_
*932 _0886_
*933 _0887_
*934 _0888_
*935 _0889_
*936 _0890_
*937 _0891_
*938 _0892_
*939 _0893_
*940 _0894_
*941 _0895_
*942 _0896_
*943 _0897_
*944 _0898_
*945 _0899_
*946 _0900_
*947 _0901_
*948 _0902_
*949 _0903_
*950 _0904_
*951 _0905_
*952 _0906_
*953 _0907_
*954 _0908_
*955 _0909_
*956 _0910_
*957 _0911_
*958 _0912_
*959 _0913_
*960 _0914_
*961 _0915_
*962 _0916_
*963 _0917_
*964 _0918_
*965 _0919_
*966 _0920_
*967 _0921_
*968 _0922_
*969 _0923_
*970 _0924_
*971 _0925_
*972 _0926_
*973 _0927_
*974 _0928_
*975 _0929_
*976 _0930_
*977 _0931_
*978 _0932_
*979 _0933_
*980 _0934_
*981 _0935_
*982 _0936_
*983 _0937_
*984 _0938_
*985 _0939_
*986 _0940_
*987 _0941_
*988 _0942_
*989 _0943_
*990 _0944_
*991 _0945_
*992 _0946_
*993 _0947_
*994 _0948_
*995 _0949_
*996 _0950_
*997 _0951_
*998 _0952_
*999 _0953_
*1000 _0954_
*1001 _0955_
*1002 _0956_
*1003 _0957_
*1004 _0958_
*1005 _0959_
*1006 _0960_
*1007 _0961_
*1008 _0962_
*1009 _0963_
*1010 _0964_
*1011 _0965_
*1012 _0966_
*1013 _0967_
*1014 _0968_
*1015 _0969_
*1016 _0970_
*1017 _0971_
*1018 _0972_
*1019 _0973_
*1020 _0974_
*1021 _0975_
*1022 _0976_
*1023 _0977_
*1024 _0978_
*1025 _0979_
*1026 _0980_
*1027 _0981_
*1028 _0982_
*1029 _0983_
*1030 _0984_
*1031 _0985_
*1032 _0986_
*1033 _0987_
*1034 _0988_
*1035 _0989_
*1036 _0990_
*1037 _0991_
*1038 _0992_
*1039 _0993_
*1040 _0994_
*1041 _0995_
*1042 _0996_
*1043 _0997_
*1044 _0998_
*1045 _0999_
*1046 _1000_
*1047 _1001_
*1048 _1002_
*1049 _1003_
*1050 _1004_
*1051 _1005_
*1052 _1006_
*1053 _1007_
*1054 _1008_
*1055 _1009_
*1056 _1010_
*1057 _1011_
*1058 _1012_
*1059 _1013_
*1060 _1014_
*1061 _1015_
*1062 _1016_
*1063 _1017_
*1064 _1018_
*1065 _1019_
*1066 _1020_
*1067 _1021_
*1068 _1022_
*1069 _1023_
*1070 _1024_
*1071 _1025_
*1072 _1026_
*1073 _1027_
*1074 _1028_
*1075 _1029_
*1076 _1030_
*1077 _1031_
*1078 _1032_
*1079 _1033_
*1080 _1034_
*1081 _1035_
*1082 _1036_
*1083 _1037_
*1084 _1038_
*1085 _1039_
*1086 _1040_
*1087 _1041_
*1088 _1042_
*1089 _1043_
*1090 _1044_
*1091 _1045_
*1092 _1046_
*1093 _1047_
*1094 _1048_
*1095 _1049_
*1096 _1050_
*1097 _1051_
*1098 _1052_
*1099 _1053_
*1100 _1054_
*1101 _1055_
*1102 _1056_
*1103 _1057_
*1104 _1058_
*1105 _1059_
*1106 _1060_
*1107 _1061_
*1108 _1062_
*1109 _1063_
*1110 _1064_
*1111 _1065_
*1112 _1066_
*1113 _1067_
*1114 _1068_
*1115 _1069_
*1116 _1070_
*1117 _1071_
*1118 _1072_
*1119 _1073_
*1120 _1074_
*1121 _1075_
*1122 _1076_
*1123 _1077_
*1124 _1078_
*1125 _1079_
*1126 _1080_
*1127 _1081_
*1128 _1082_
*1129 _1083_
*1130 _1084_
*1131 _1085_
*1132 _1086_
*1133 _1087_
*1134 _1088_
*1135 _1089_
*1136 _1090_
*1137 _1091_
*1138 _1092_
*1139 _1093_
*1140 _1094_
*1141 _1095_
*1142 _1096_
*1143 _1097_
*1144 _1098_
*1145 _1099_
*1146 _1100_
*1147 _1101_
*1148 _1102_
*1149 _1103_
*1150 _1104_
*1151 _1105_
*1152 _1106_
*1153 _1107_
*1154 _1108_
*1155 _1109_
*1156 _1110_
*1157 _1111_
*1158 _1112_
*1159 _1113_
*1160 _1114_
*1161 _1115_
*1162 _1116_
*1163 _1117_
*1164 _1118_
*1165 _1119_
*1166 _1120_
*1167 _1121_
*1168 _1122_
*1169 _1123_
*1170 _1124_
*1171 _1125_
*1172 _1126_
*1173 _1127_
*1174 _1128_
*1175 _1129_
*1176 _1130_
*1177 _1131_
*1178 _1132_
*1179 _1133_
*1180 _1134_
*1181 _1135_
*1182 _1136_
*1183 _1137_
*1184 _1138_
*1185 _1139_
*1186 _1140_
*1187 _1141_
*1188 _1142_
*1189 _1143_
*1190 _1144_
*1191 _1145_
*1192 _1146_
*1193 _1147_
*1194 clknet_0_clk
*1195 clknet_4_0_0_clk
*1196 clknet_4_10_0_clk
*1197 clknet_4_11_0_clk
*1198 clknet_4_12_0_clk
*1199 clknet_4_13_0_clk
*1200 clknet_4_14_0_clk
*1201 clknet_4_15_0_clk
*1202 clknet_4_1_0_clk
*1203 clknet_4_2_0_clk
*1204 clknet_4_3_0_clk
*1205 clknet_4_4_0_clk
*1206 clknet_4_5_0_clk
*1207 clknet_4_6_0_clk
*1208 clknet_4_7_0_clk
*1209 clknet_4_8_0_clk
*1210 clknet_4_9_0_clk
*1211 net1
*1212 net10
*1213 net13
*1214 net14
*1215 net15
*1216 net16
*1217 net17
*1218 net18
*1219 net19
*1220 net2
*1221 net20
*1222 net21
*1223 net22
*1224 net23
*1225 net24
*1226 net25
*1227 net26
*1228 net27
*1229 net28
*1230 net29
*1231 net3
*1232 net30
*1233 net31
*1234 net32
*1235 net33
*1236 net34
*1237 net35
*1238 net36
*1239 net37
*1240 net38
*1241 net39
*1242 net4
*1243 net40
*1244 net41
*1245 net42
*1246 net43
*1247 net44
*1248 net45
*1249 net46
*1250 net47
*1251 net48
*1252 net49
*1253 net5
*1254 net50
*1255 net51
*1256 net52
*1257 net53
*1258 net54
*1259 net55
*1260 net56
*1261 net57
*1262 net58
*1263 net6
*1264 net7
*1265 net8
*1266 net9
*1267 vga\.b0
*1268 vga\.ball_angle\[0\]
*1269 vga\.ball_angle\[1\]
*1270 vga\.ball_angle\[2\]
*1271 vga\.ball_angle\[3\]
*1272 vga\.ball_motion_l
*1273 vga\.ball_pos_h\[0\]
*1274 vga\.ball_pos_h\[1\]
*1275 vga\.ball_pos_h\[2\]
*1276 vga\.ball_pos_h\[3\]
*1277 vga\.ball_pos_h\[4\]
*1278 vga\.ball_pos_h\[5\]
*1279 vga\.ball_pos_h\[6\]
*1280 vga\.ball_pos_h\[7\]
*1281 vga\.ball_pos_h\[8\]
*1282 vga\.ball_pos_h\[9\]
*1283 vga\.ball_pos_v\[0\]
*1284 vga\.ball_pos_v\[1\]
*1285 vga\.ball_pos_v\[2\]
*1286 vga\.ball_pos_v\[3\]
*1287 vga\.ball_pos_v\[4\]
*1288 vga\.ball_pos_v\[5\]
*1289 vga\.ball_pos_v\[6\]
*1290 vga\.ball_pos_v\[7\]
*1291 vga\.ball_pos_v\[8\]
*1292 vga\.ball_ratio\[0\]
*1293 vga\.ball_ratio\[1\]
*1294 vga\.ball_ratio\[2\]
*1295 vga\.blank_h
*1296 vga\.blank_v
*1297 vga\.count_h\[0\]
*1298 vga\.count_h\[1\]
*1299 vga\.count_h\[2\]
*1300 vga\.count_h\[3\]
*1301 vga\.count_h\[4\]
*1302 vga\.count_h\[5\]
*1303 vga\.count_h\[6\]
*1304 vga\.count_h\[7\]
*1305 vga\.count_h\[8\]
*1306 vga\.count_h\[9\]
*1307 vga\.count_h_ball
*1308 vga\.count_h_paddle_l
*1309 vga\.count_h_paddle_r
*1310 vga\.count_h_score_l_0
*1311 vga\.count_h_score_l_1
*1312 vga\.count_h_score_l_2
*1313 vga\.count_h_score_r_0
*1314 vga\.count_h_score_r_1
*1315 vga\.count_h_score_r_2
*1316 vga\.count_v\[0\]
*1317 vga\.count_v\[1\]
*1318 vga\.count_v\[2\]
*1319 vga\.count_v\[3\]
*1320 vga\.count_v\[4\]
*1321 vga\.count_v\[5\]
*1322 vga\.count_v\[6\]
*1323 vga\.count_v\[7\]
*1324 vga\.count_v\[8\]
*1325 vga\.count_v\[9\]
*1326 vga\.count_v_paddle_l
*1327 vga\.count_v_paddle_r
*1328 vga\.count_v_score
*1329 vga\.count_v_score_update_0
*1330 vga\.count_v_score_update_1
*1331 vga\.count_v_score_update_2
*1332 vga\.count_v_score_update_3
*1333 vga\.count_v_score_update_4
*1334 vga\.g0
*1335 vga\.hide_l
*1336 vga\.hide_r
*1337 vga\.hs
*1338 vga\.hs_out
*1339 vga\.interval_counter\[0\]
*1340 vga\.interval_counter\[10\]
*1341 vga\.interval_counter\[11\]
*1342 vga\.interval_counter\[12\]
*1343 vga\.interval_counter\[13\]
*1344 vga\.interval_counter\[14\]
*1345 vga\.interval_counter\[15\]
*1346 vga\.interval_counter\[16\]
*1347 vga\.interval_counter\[17\]
*1348 vga\.interval_counter\[18\]
*1349 vga\.interval_counter\[19\]
*1350 vga\.interval_counter\[1\]
*1351 vga\.interval_counter\[20\]
*1352 vga\.interval_counter\[21\]
*1353 vga\.interval_counter\[22\]
*1354 vga\.interval_counter\[23\]
*1355 vga\.interval_counter\[24\]
*1356 vga\.interval_counter\[2\]
*1357 vga\.interval_counter\[3\]
*1358 vga\.interval_counter\[4\]
*1359 vga\.interval_counter\[5\]
*1360 vga\.interval_counter\[6\]
*1361 vga\.interval_counter\[7\]
*1362 vga\.interval_counter\[8\]
*1363 vga\.interval_counter\[9\]
*1364 vga\.left_down_1d
*1365 vga\.left_down_pressed
*1366 vga\.left_up_1d
*1367 vga\.left_up_pressed
*1368 vga\.paddle_l_pos_v\[0\]
*1369 vga\.paddle_l_pos_v\[1\]
*1370 vga\.paddle_l_pos_v\[2\]
*1371 vga\.paddle_l_pos_v\[3\]
*1372 vga\.paddle_l_pos_v\[4\]
*1373 vga\.paddle_l_pos_v\[5\]
*1374 vga\.paddle_l_pos_v\[6\]
*1375 vga\.paddle_l_pos_v\[7\]
*1376 vga\.paddle_l_pos_v\[8\]
*1377 vga\.paddle_r_pos_v\[0\]
*1378 vga\.paddle_r_pos_v\[1\]
*1379 vga\.paddle_r_pos_v\[2\]
*1380 vga\.paddle_r_pos_v\[3\]
*1381 vga\.paddle_r_pos_v\[4\]
*1382 vga\.paddle_r_pos_v\[5\]
*1383 vga\.paddle_r_pos_v\[6\]
*1384 vga\.paddle_r_pos_v\[7\]
*1385 vga\.paddle_r_pos_v\[8\]
*1386 vga\.right_down_1d
*1387 vga\.right_down_pressed
*1388 vga\.right_up_1d
*1389 vga\.right_up_pressed
*1390 vga\.score_l\[0\]
*1391 vga\.score_l\[1\]
*1392 vga\.score_l\[2\]
*1393 vga\.score_l_pixels\[0\]
*1394 vga\.score_l_pixels\[1\]
*1395 vga\.score_l_pixels\[2\]
*1396 vga\.score_r\[0\]
*1397 vga\.score_r\[1\]
*1398 vga\.score_r\[2\]
*1399 vga\.score_r_pixels\[0\]
*1400 vga\.score_r_pixels\[1\]
*1401 vga\.score_r_pixels\[2\]
*1402 vga\.vs
*1403 vga\.vs_out
*1404 ANTENNA_1
*1405 ANTENNA_2
*1406 ANTENNA_3
*1407 ANTENNA_4
*1408 FILLER_0_0_101
*1409 FILLER_0_0_109
*1410 FILLER_0_0_120
*1411 FILLER_0_0_139
*1412 FILLER_0_0_144
*1413 FILLER_0_0_15
*1414 FILLER_0_0_150
*1415 FILLER_0_0_157
*1416 FILLER_0_0_165
*1417 FILLER_0_0_186
*1418 FILLER_0_0_195
*1419 FILLER_0_0_206
*1420 FILLER_0_0_210
*1421 FILLER_0_0_225
*1422 FILLER_0_0_247
*1423 FILLER_0_0_251
*1424 FILLER_0_0_27
*1425 FILLER_0_0_278
*1426 FILLER_0_0_281
*1427 FILLER_0_0_287
*1428 FILLER_0_0_3
*1429 FILLER_0_0_300
*1430 FILLER_0_0_309
*1431 FILLER_0_0_318
*1432 FILLER_0_0_330
*1433 FILLER_0_0_334
*1434 FILLER_0_0_53
*1435 FILLER_0_0_57
*1436 FILLER_0_0_65
*1437 FILLER_0_0_79
*1438 FILLER_0_0_83
*1439 FILLER_0_10_111
*1440 FILLER_0_10_135
*1441 FILLER_0_10_139
*1442 FILLER_0_10_150
*1443 FILLER_0_10_16
*1444 FILLER_0_10_167
*1445 FILLER_0_10_195
*1446 FILLER_0_10_213
*1447 FILLER_0_10_23
*1448 FILLER_0_10_231
*1449 FILLER_0_10_250
*1450 FILLER_0_10_273
*1451 FILLER_0_10_289
*1452 FILLER_0_10_3
*1453 FILLER_0_10_307
*1454 FILLER_0_10_331
*1455 FILLER_0_10_38
*1456 FILLER_0_10_52
*1457 FILLER_0_10_64
*1458 FILLER_0_10_72
*1459 FILLER_0_10_79
*1460 FILLER_0_10_83
*1461 FILLER_0_10_85
*1462 FILLER_0_11_105
*1463 FILLER_0_11_124
*1464 FILLER_0_11_128
*1465 FILLER_0_11_134
*1466 FILLER_0_11_158
*1467 FILLER_0_11_166
*1468 FILLER_0_11_169
*1469 FILLER_0_11_19
*1470 FILLER_0_11_223
*1471 FILLER_0_11_225
*1472 FILLER_0_11_251
*1473 FILLER_0_11_263
*1474 FILLER_0_11_272
*1475 FILLER_0_11_279
*1476 FILLER_0_11_28
*1477 FILLER_0_11_281
*1478 FILLER_0_11_293
*1479 FILLER_0_11_308
*1480 FILLER_0_11_36
*1481 FILLER_0_11_53
*1482 FILLER_0_11_61
*1483 FILLER_0_11_79
*1484 FILLER_0_11_92
*1485 FILLER_0_11_97
*1486 FILLER_0_12_125
*1487 FILLER_0_12_134
*1488 FILLER_0_12_141
*1489 FILLER_0_12_157
*1490 FILLER_0_12_178
*1491 FILLER_0_12_18
*1492 FILLER_0_12_190
*1493 FILLER_0_12_197
*1494 FILLER_0_12_205
*1495 FILLER_0_12_210
*1496 FILLER_0_12_224
*1497 FILLER_0_12_26
*1498 FILLER_0_12_261
*1499 FILLER_0_12_279
*1500 FILLER_0_12_283
*1501 FILLER_0_12_289
*1502 FILLER_0_12_29
*1503 FILLER_0_12_3
*1504 FILLER_0_12_317
*1505 FILLER_0_12_41
*1506 FILLER_0_12_64
*1507 FILLER_0_12_79
*1508 FILLER_0_12_95
*1509 FILLER_0_13_101
*1510 FILLER_0_13_110
*1511 FILLER_0_13_127
*1512 FILLER_0_13_134
*1513 FILLER_0_13_138
*1514 FILLER_0_13_15
*1515 FILLER_0_13_160
*1516 FILLER_0_13_167
*1517 FILLER_0_13_180
*1518 FILLER_0_13_184
*1519 FILLER_0_13_189
*1520 FILLER_0_13_210
*1521 FILLER_0_13_218
*1522 FILLER_0_13_23
*1523 FILLER_0_13_277
*1524 FILLER_0_13_3
*1525 FILLER_0_13_307
*1526 FILLER_0_13_327
*1527 FILLER_0_13_39
*1528 FILLER_0_13_50
*1529 FILLER_0_13_74
*1530 FILLER_0_13_79
*1531 FILLER_0_13_85
*1532 FILLER_0_13_91
*1533 FILLER_0_14_108
*1534 FILLER_0_14_120
*1535 FILLER_0_14_138
*1536 FILLER_0_14_141
*1537 FILLER_0_14_149
*1538 FILLER_0_14_164
*1539 FILLER_0_14_189
*1540 FILLER_0_14_195
*1541 FILLER_0_14_197
*1542 FILLER_0_14_208
*1543 FILLER_0_14_212
*1544 FILLER_0_14_236
*1545 FILLER_0_14_242
*1546 FILLER_0_14_247
*1547 FILLER_0_14_259
*1548 FILLER_0_14_317
*1549 FILLER_0_14_35
*1550 FILLER_0_14_68
*1551 FILLER_0_14_74
*1552 FILLER_0_14_82
*1553 FILLER_0_14_91
*1554 FILLER_0_15_104
*1555 FILLER_0_15_123
*1556 FILLER_0_15_131
*1557 FILLER_0_15_143
*1558 FILLER_0_15_15
*1559 FILLER_0_15_161
*1560 FILLER_0_15_167
*1561 FILLER_0_15_179
*1562 FILLER_0_15_219
*1563 FILLER_0_15_223
*1564 FILLER_0_15_237
*1565 FILLER_0_15_241
*1566 FILLER_0_15_254
*1567 FILLER_0_15_265
*1568 FILLER_0_15_27
*1569 FILLER_0_15_272
*1570 FILLER_0_15_3
*1571 FILLER_0_15_307
*1572 FILLER_0_15_324
*1573 FILLER_0_15_328
*1574 FILLER_0_15_334
*1575 FILLER_0_15_35
*1576 FILLER_0_15_51
*1577 FILLER_0_15_55
*1578 FILLER_0_15_74
*1579 FILLER_0_15_78
*1580 FILLER_0_15_89
*1581 FILLER_0_15_95
*1582 FILLER_0_16_102
*1583 FILLER_0_16_117
*1584 FILLER_0_16_123
*1585 FILLER_0_16_138
*1586 FILLER_0_16_160
*1587 FILLER_0_16_186
*1588 FILLER_0_16_19
*1589 FILLER_0_16_195
*1590 FILLER_0_16_203
*1591 FILLER_0_16_231
*1592 FILLER_0_16_235
*1593 FILLER_0_16_251
*1594 FILLER_0_16_271
*1595 FILLER_0_16_303
*1596 FILLER_0_16_307
*1597 FILLER_0_16_32
*1598 FILLER_0_16_325
*1599 FILLER_0_16_329
*1600 FILLER_0_16_44
*1601 FILLER_0_16_56
*1602 FILLER_0_16_62
*1603 FILLER_0_16_71
*1604 FILLER_0_16_81
*1605 FILLER_0_16_88
*1606 FILLER_0_16_96
*1607 FILLER_0_17_104
*1608 FILLER_0_17_119
*1609 FILLER_0_17_132
*1610 FILLER_0_17_148
*1611 FILLER_0_17_157
*1612 FILLER_0_17_166
*1613 FILLER_0_17_172
*1614 FILLER_0_17_189
*1615 FILLER_0_17_210
*1616 FILLER_0_17_247
*1617 FILLER_0_17_271
*1618 FILLER_0_17_317
*1619 FILLER_0_17_329
*1620 FILLER_0_17_40
*1621 FILLER_0_17_55
*1622 FILLER_0_17_65
*1623 FILLER_0_17_77
*1624 FILLER_0_17_97
*1625 FILLER_0_18_110
*1626 FILLER_0_18_134
*1627 FILLER_0_18_141
*1628 FILLER_0_18_153
*1629 FILLER_0_18_161
*1630 FILLER_0_18_171
*1631 FILLER_0_18_187
*1632 FILLER_0_18_197
*1633 FILLER_0_18_220
*1634 FILLER_0_18_224
*1635 FILLER_0_18_228
*1636 FILLER_0_18_236
*1637 FILLER_0_18_24
*1638 FILLER_0_18_243
*1639 FILLER_0_18_251
*1640 FILLER_0_18_270
*1641 FILLER_0_18_282
*1642 FILLER_0_18_29
*1643 FILLER_0_18_294
*1644 FILLER_0_18_3
*1645 FILLER_0_18_300
*1646 FILLER_0_18_45
*1647 FILLER_0_18_55
*1648 FILLER_0_18_7
*1649 FILLER_0_18_80
*1650 FILLER_0_19_106
*1651 FILLER_0_19_120
*1652 FILLER_0_19_125
*1653 FILLER_0_19_133
*1654 FILLER_0_19_151
*1655 FILLER_0_19_167
*1656 FILLER_0_19_19
*1657 FILLER_0_19_221
*1658 FILLER_0_19_23
*1659 FILLER_0_19_231
*1660 FILLER_0_19_252
*1661 FILLER_0_19_256
*1662 FILLER_0_19_278
*1663 FILLER_0_19_299
*1664 FILLER_0_19_3
*1665 FILLER_0_19_307
*1666 FILLER_0_19_31
*1667 FILLER_0_19_320
*1668 FILLER_0_19_40
*1669 FILLER_0_19_57
*1670 FILLER_0_19_69
*1671 FILLER_0_19_77
*1672 FILLER_0_19_96
*1673 FILLER_0_1_100
*1674 FILLER_0_1_106
*1675 FILLER_0_1_122
*1676 FILLER_0_1_140
*1677 FILLER_0_1_15
*1678 FILLER_0_1_172
*1679 FILLER_0_1_179
*1680 FILLER_0_1_225
*1681 FILLER_0_1_241
*1682 FILLER_0_1_259
*1683 FILLER_0_1_27
*1684 FILLER_0_1_277
*1685 FILLER_0_1_297
*1686 FILLER_0_1_3
*1687 FILLER_0_1_310
*1688 FILLER_0_1_334
*1689 FILLER_0_1_38
*1690 FILLER_0_1_49
*1691 FILLER_0_1_78
*1692 FILLER_0_20_115
*1693 FILLER_0_20_133
*1694 FILLER_0_20_149
*1695 FILLER_0_20_155
*1696 FILLER_0_20_170
*1697 FILLER_0_20_195
*1698 FILLER_0_20_203
*1699 FILLER_0_20_212
*1700 FILLER_0_20_221
*1701 FILLER_0_20_23
*1702 FILLER_0_20_235
*1703 FILLER_0_20_253
*1704 FILLER_0_20_260
*1705 FILLER_0_20_27
*1706 FILLER_0_20_272
*1707 FILLER_0_20_280
*1708 FILLER_0_20_29
*1709 FILLER_0_20_298
*1710 FILLER_0_20_3
*1711 FILLER_0_20_315
*1712 FILLER_0_20_37
*1713 FILLER_0_20_45
*1714 FILLER_0_20_64
*1715 FILLER_0_20_73
*1716 FILLER_0_20_82
*1717 FILLER_0_20_93
*1718 FILLER_0_21_107
*1719 FILLER_0_21_111
*1720 FILLER_0_21_123
*1721 FILLER_0_21_135
*1722 FILLER_0_21_148
*1723 FILLER_0_21_156
*1724 FILLER_0_21_161
*1725 FILLER_0_21_173
*1726 FILLER_0_21_181
*1727 FILLER_0_21_198
*1728 FILLER_0_21_214
*1729 FILLER_0_21_222
*1730 FILLER_0_21_225
*1731 FILLER_0_21_240
*1732 FILLER_0_21_244
*1733 FILLER_0_21_252
*1734 FILLER_0_21_258
*1735 FILLER_0_21_275
*1736 FILLER_0_21_279
*1737 FILLER_0_21_297
*1738 FILLER_0_21_317
*1739 FILLER_0_21_325
*1740 FILLER_0_21_333
*1741 FILLER_0_21_34
*1742 FILLER_0_21_45
*1743 FILLER_0_21_79
*1744 FILLER_0_21_83
*1745 FILLER_0_21_87
*1746 FILLER_0_21_91
*1747 FILLER_0_22_107
*1748 FILLER_0_22_11
*1749 FILLER_0_22_136
*1750 FILLER_0_22_184
*1751 FILLER_0_22_20
*1752 FILLER_0_22_238
*1753 FILLER_0_22_244
*1754 FILLER_0_22_253
*1755 FILLER_0_22_272
*1756 FILLER_0_22_280
*1757 FILLER_0_22_297
*1758 FILLER_0_22_3
*1759 FILLER_0_22_309
*1760 FILLER_0_22_317
*1761 FILLER_0_22_327
*1762 FILLER_0_22_33
*1763 FILLER_0_22_76
*1764 FILLER_0_22_93
*1765 FILLER_0_23_107
*1766 FILLER_0_23_111
*1767 FILLER_0_23_119
*1768 FILLER_0_23_130
*1769 FILLER_0_23_169
*1770 FILLER_0_23_194
*1771 FILLER_0_23_225
*1772 FILLER_0_23_229
*1773 FILLER_0_23_24
*1774 FILLER_0_23_259
*1775 FILLER_0_23_264
*1776 FILLER_0_23_276
*1777 FILLER_0_23_3
*1778 FILLER_0_23_334
*1779 FILLER_0_23_41
*1780 FILLER_0_23_45
*1781 FILLER_0_23_54
*1782 FILLER_0_24_100
*1783 FILLER_0_24_113
*1784 FILLER_0_24_141
*1785 FILLER_0_24_162
*1786 FILLER_0_24_166
*1787 FILLER_0_24_178
*1788 FILLER_0_24_190
*1789 FILLER_0_24_22
*1790 FILLER_0_24_229
*1791 FILLER_0_24_250
*1792 FILLER_0_24_253
*1793 FILLER_0_24_258
*1794 FILLER_0_24_268
*1795 FILLER_0_24_284
*1796 FILLER_0_24_3
*1797 FILLER_0_24_307
*1798 FILLER_0_24_55
*1799 FILLER_0_24_63
*1800 FILLER_0_24_74
*1801 FILLER_0_24_82
*1802 FILLER_0_24_89
*1803 FILLER_0_24_93
*1804 FILLER_0_25_111
*1805 FILLER_0_25_113
*1806 FILLER_0_25_120
*1807 FILLER_0_25_136
*1808 FILLER_0_25_146
*1809 FILLER_0_25_150
*1810 FILLER_0_25_154
*1811 FILLER_0_25_19
*1812 FILLER_0_25_191
*1813 FILLER_0_25_197
*1814 FILLER_0_25_209
*1815 FILLER_0_25_222
*1816 FILLER_0_25_236
*1817 FILLER_0_25_248
*1818 FILLER_0_25_275
*1819 FILLER_0_25_279
*1820 FILLER_0_25_29
*1821 FILLER_0_25_296
*1822 FILLER_0_25_37
*1823 FILLER_0_25_49
*1824 FILLER_0_25_55
*1825 FILLER_0_25_93
*1826 FILLER_0_26_11
*1827 FILLER_0_26_113
*1828 FILLER_0_26_132
*1829 FILLER_0_26_136
*1830 FILLER_0_26_149
*1831 FILLER_0_26_173
*1832 FILLER_0_26_180
*1833 FILLER_0_26_193
*1834 FILLER_0_26_213
*1835 FILLER_0_26_221
*1836 FILLER_0_26_231
*1837 FILLER_0_26_251
*1838 FILLER_0_26_253
*1839 FILLER_0_26_27
*1840 FILLER_0_26_29
*1841 FILLER_0_26_3
*1842 FILLER_0_26_317
*1843 FILLER_0_26_33
*1844 FILLER_0_26_57
*1845 FILLER_0_26_66
*1846 FILLER_0_26_78
*1847 FILLER_0_26_85
*1848 FILLER_0_26_96
*1849 FILLER_0_27_108
*1850 FILLER_0_27_11
*1851 FILLER_0_27_113
*1852 FILLER_0_27_128
*1853 FILLER_0_27_143
*1854 FILLER_0_27_153
*1855 FILLER_0_27_165
*1856 FILLER_0_27_169
*1857 FILLER_0_27_175
*1858 FILLER_0_27_190
*1859 FILLER_0_27_195
*1860 FILLER_0_27_201
*1861 FILLER_0_27_225
*1862 FILLER_0_27_274
*1863 FILLER_0_27_281
*1864 FILLER_0_27_29
*1865 FILLER_0_27_296
*1866 FILLER_0_27_3
*1867 FILLER_0_27_318
*1868 FILLER_0_27_73
*1869 FILLER_0_27_83
*1870 FILLER_0_27_96
*1871 FILLER_0_28_116
*1872 FILLER_0_28_120
*1873 FILLER_0_28_149
*1874 FILLER_0_28_155
*1875 FILLER_0_28_159
*1876 FILLER_0_28_187
*1877 FILLER_0_28_19
*1878 FILLER_0_28_191
*1879 FILLER_0_28_195
*1880 FILLER_0_28_204
*1881 FILLER_0_28_222
*1882 FILLER_0_28_239
*1883 FILLER_0_28_253
*1884 FILLER_0_28_263