*SPEF "ieee 1481-1999"
*DESIGN "tt_um_8bitALU"
*DATE "15:17:20 Friday April 19, 2024"
*VENDOR "The OpenROAD Project"
*PROGRAM "OpenROAD"
*VERSION "0889970d1790a2617e69f253221b8bd7626e51dc"
*DESIGN_FLOW "NAME_SCOPE LOCAL" "PIN_CAP NONE"
*DIVIDER /
*DELIMITER :
*BUS_DELIMITER []
*T_UNIT 1 NS
*C_UNIT 1 PF
*R_UNIT 1 OHM
*L_UNIT 1 HENRY

*NAME_MAP
*3 clk
*4 ena
*5 rst_n
*6 ui_in[0]
*7 ui_in[1]
*8 ui_in[2]
*9 ui_in[3]
*10 ui_in[4]
*11 ui_in[5]
*12 ui_in[6]
*13 ui_in[7]
*14 uio_in[0]
*15 uio_in[1]
*16 uio_in[2]
*17 uio_in[3]
*18 uio_in[4]
*19 uio_in[5]
*20 uio_in[6]
*21 uio_in[7]
*22 net11
*23 net12
*24 net13
*25 net14
*26 net15
*27 net16
*28 net17
*29 net18
*30 net19
*31 net20
*32 net21
*33 net22
*34 net23
*35 net24
*36 net25
*37 net26
*38 uo_out[0]
*39 uo_out[1]
*40 uo_out[2]
*41 uo_out[3]
*42 uo_out[4]
*43 uo_out[5]
*44 uo_out[6]
*45 uo_out[7]
*46 _000_
*47 _001_
*48 _002_
*49 _003_
*50 _004_
*51 _005_
*52 _006_
*53 _007_
*54 _008_
*55 _009_
*56 _010_
*57 _011_
*58 _012_
*59 _013_
*60 _014_
*61 _015_
*62 _016_
*63 _017_
*64 _018_
*65 _019_
*66 _020_
*67 _021_
*68 _022_
*69 _023_
*70 _024_
*71 _025_
*72 _026_
*73 _027_
*74 _028_
*75 _029_
*76 _030_
*77 _031_
*78 _032_
*79 _033_
*80 _034_
*81 _035_
*82 _036_
*83 _037_
*84 _038_
*85 _039_
*86 _040_
*87 _041_
*88 _042_
*89 _043_
*90 _044_
*91 _045_
*92 _046_
*93 _047_
*94 _048_
*95 _049_
*96 _050_
*97 _051_
*98 _052_
*99 _053_
*100 _054_
*101 _055_
*102 _056_
*103 _057_
*104 _058_
*105 _059_
*106 _060_
*107 _061_
*108 _062_
*109 _063_
*110 _064_
*111 _065_
*112 _066_
*113 _067_
*114 _068_
*115 _069_
*116 _070_
*117 _071_
*118 _072_
*119 _073_
*120 _074_
*121 _075_
*122 _076_
*123 _077_
*124 _078_
*125 _079_
*126 _080_
*127 _081_
*128 _082_
*129 _083_
*130 _084_
*131 _085_
*132 _086_
*133 _087_
*134 _088_
*135 _089_
*136 _090_
*137 clknet_0_clk
*138 clknet_1_0__leaf_clk
*139 clknet_1_1__leaf_clk
*140 net1
*141 net10
*142 net2
*143 net3
*144 net4
*145 net5
*146 net6
*147 net7
*148 net8
*149 net9
*150 FILLER_0_0_109
*151 FILLER_0_0_113
*152 FILLER_0_0_125
*153 FILLER_0_0_137
*154 FILLER_0_0_141
*155 FILLER_0_0_15
*156 FILLER_0_0_153
*157 FILLER_0_0_165
*158 FILLER_0_0_169
*159 FILLER_0_0_181
*160 FILLER_0_0_193
*161 FILLER_0_0_197
*162 FILLER_0_0_209
*163 FILLER_0_0_221
*164 FILLER_0_0_225
*165 FILLER_0_0_237
*166 FILLER_0_0_249
*167 FILLER_0_0_253
*168 FILLER_0_0_265
*169 FILLER_0_0_27
*170 FILLER_0_0_277
*171 FILLER_0_0_281
*172 FILLER_0_0_29
*173 FILLER_0_0_293
*174 FILLER_0_0_3
*175 FILLER_0_0_305
*176 FILLER_0_0_309
*177 FILLER_0_0_321
*178 FILLER_0_0_333
*179 FILLER_0_0_41
*180 FILLER_0_0_53
*181 FILLER_0_0_57
*182 FILLER_0_0_69
*183 FILLER_0_0_81
*184 FILLER_0_0_85
*185 FILLER_0_0_97
*186 FILLER_0_10_109
*187 FILLER_0_10_121
*188 FILLER_0_10_133
*189 FILLER_0_10_139
*190 FILLER_0_10_141
*191 FILLER_0_10_15
*192 FILLER_0_10_153
*193 FILLER_0_10_165
*194 FILLER_0_10_177
*195 FILLER_0_10_189
*196 FILLER_0_10_195
*197 FILLER_0_10_197
*198 FILLER_0_10_209
*199 FILLER_0_10_221
*200 FILLER_0_10_233
*201 FILLER_0_10_245
*202 FILLER_0_10_251
*203 FILLER_0_10_253
*204 FILLER_0_10_265
*205 FILLER_0_10_27
*206 FILLER_0_10_277
*207 FILLER_0_10_289
*208 FILLER_0_10_29
*209 FILLER_0_10_3
*210 FILLER_0_10_301
*211 FILLER_0_10_307
*212 FILLER_0_10_309
*213 FILLER_0_10_321
*214 FILLER_0_10_333
*215 FILLER_0_10_41
*216 FILLER_0_10_53
*217 FILLER_0_10_65
*218 FILLER_0_10_77
*219 FILLER_0_10_83
*220 FILLER_0_10_85
*221 FILLER_0_10_97
*222 FILLER_0_11_105
*223 FILLER_0_11_111
*224 FILLER_0_11_113
*225 FILLER_0_11_125
*226 FILLER_0_11_137
*227 FILLER_0_11_149
*228 FILLER_0_11_15
*229 FILLER_0_11_161
*230 FILLER_0_11_167
*231 FILLER_0_11_169
*232 FILLER_0_11_181
*233 FILLER_0_11_193
*234 FILLER_0_11_205
*235 FILLER_0_11_217
*236 FILLER_0_11_223
*237 FILLER_0_11_225
*238 FILLER_0_11_237
*239 FILLER_0_11_249
*240 FILLER_0_11_261
*241 FILLER_0_11_27
*242 FILLER_0_11_273
*243 FILLER_0_11_279
*244 FILLER_0_11_281
*245 FILLER_0_11_293
*246 FILLER_0_11_3
*247 FILLER_0_11_305
*248 FILLER_0_11_317
*249 FILLER_0_11_329
*250 FILLER_0_11_39
*251 FILLER_0_11_51
*252 FILLER_0_11_55
*253 FILLER_0_11_57
*254 FILLER_0_11_69
*255 FILLER_0_11_81
*256 FILLER_0_11_93
*257 FILLER_0_12_109
*258 FILLER_0_12_121
*259 FILLER_0_12_133
*260 FILLER_0_12_139
*261 FILLER_0_12_141
*262 FILLER_0_12_15
*263 FILLER_0_12_153
*264 FILLER_0_12_165
*265 FILLER_0_12_177
*266 FILLER_0_12_189
*267 FILLER_0_12_195
*268 FILLER_0_12_197
*269 FILLER_0_12_209
*270 FILLER_0_12_221
*271 FILLER_0_12_233
*272 FILLER_0_12_245
*273 FILLER_0_12_251
*274 FILLER_0_12_253
*275 FILLER_0_12_265
*276 FILLER_0_12_27
*277 FILLER_0_12_277
*278 FILLER_0_12_289
*279 FILLER_0_12_29
*280 FILLER_0_12_3
*281 FILLER_0_12_301
*282 FILLER_0_12_307
*283 FILLER_0_12_309
*284 FILLER_0_12_321
*285 FILLER_0_12_333
*286 FILLER_0_12_41
*287 FILLER_0_12_53
*288 FILLER_0_12_65
*289 FILLER_0_12_77
*290 FILLER_0_12_83
*291 FILLER_0_12_85
*292 FILLER_0_12_97
*293 FILLER_0_13_105
*294 FILLER_0_13_111
*295 FILLER_0_13_113
*296 FILLER_0_13_125
*297 FILLER_0_13_137
*298 FILLER_0_13_149
*299 FILLER_0_13_15
*300 FILLER_0_13_161
*301 FILLER_0_13_167
*302 FILLER_0_13_169
*303 FILLER_0_13_181
*304 FILLER_0_13_193
*305 FILLER_0_13_205
*306 FILLER_0_13_217
*307 FILLER_0_13_223
*308 FILLER_0_13_225
*309 FILLER_0_13_237
*310 FILLER_0_13_249
*311 FILLER_0_13_261
*312 FILLER_0_13_27
*313 FILLER_0_13_273
*314 FILLER_0_13_279
*315 FILLER_0_13_281
*316 FILLER_0_13_293
*317 FILLER_0_13_3
*318 FILLER_0_13_305
*319 FILLER_0_13_317
*320 FILLER_0_13_329
*321 FILLER_0_13_39
*322 FILLER_0_13_51
*323 FILLER_0_13_55
*324 FILLER_0_13_57
*325 FILLER_0_13_69
*326 FILLER_0_13_81
*327 FILLER_0_13_93
*328 FILLER_0_14_109
*329 FILLER_0_14_121
*330 FILLER_0_14_133
*331 FILLER_0_14_139
*332 FILLER_0_14_141
*333 FILLER_0_14_15
*334 FILLER_0_14_153
*335 FILLER_0_14_165
*336 FILLER_0_14_177
*337 FILLER_0_14_189
*338 FILLER_0_14_195
*339 FILLER_0_14_197
*340 FILLER_0_14_209
*341 FILLER_0_14_221
*342 FILLER_0_14_233
*343 FILLER_0_14_245
*344 FILLER_0_14_251
*345 FILLER_0_14_253
*346 FILLER_0_14_265
*347 FILLER_0_14_27
*348 FILLER_0_14_277
*349 FILLER_0_14_289
*350 FILLER_0_14_29
*351 FILLER_0_14_3
*352 FILLER_0_14_301
*353 FILLER_0_14_307
*354 FILLER_0_14_309
*355 FILLER_0_14_321
*356 FILLER_0_14_333
*357 FILLER_0_14_41
*358 FILLER_0_14_53
*359 FILLER_0_14_65
*360 FILLER_0_14_77
*361 FILLER_0_14_83
*362 FILLER_0_14_85
*363 FILLER_0_14_97
*364 FILLER_0_15_105
*365 FILLER_0_15_111
*366 FILLER_0_15_113
*367 FILLER_0_15_125
*368 FILLER_0_15_137
*369 FILLER_0_15_149
*370 FILLER_0_15_15
*371 FILLER_0_15_161
*372 FILLER_0_15_167
*373 FILLER_0_15_169
*374 FILLER_0_15_181
*375 FILLER_0_15_193
*376 FILLER_0_15_205
*377 FILLER_0_15_217
*378 FILLER_0_15_223
*379 FILLER_0_15_225
*380 FILLER_0_15_237
*381 FILLER_0_15_249
*382 FILLER_0_15_261
*383 FILLER_0_15_27
*384 FILLER_0_15_273
*385 FILLER_0_15_279
*386 FILLER_0_15_281
*387 FILLER_0_15_293
*388 FILLER_0_15_3
*389 FILLER_0_15_305
*390 FILLER_0_15_317
*391 FILLER_0_15_329
*392 FILLER_0_15_39
*393 FILLER_0_15_51
*394 FILLER_0_15_55
*395 FILLER_0_15_57
*396 FILLER_0_15_69
*397 FILLER_0_15_81
*398 FILLER_0_15_93
*399 FILLER_0_16_109
*400 FILLER_0_16_121
*401 FILLER_0_16_133
*402 FILLER_0_16_139
*403 FILLER_0_16_141
*404 FILLER_0_16_15
*405 FILLER_0_16_153
*406 FILLER_0_16_165
*407 FILLER_0_16_177
*408 FILLER_0_16_189
*409 FILLER_0_16_195
*410 FILLER_0_16_197
*411 FILLER_0_16_209
*412 FILLER_0_16_221
*413 FILLER_0_16_233
*414 FILLER_0_16_245
*415 FILLER_0_16_251
*416 FILLER_0_16_253
*417 FILLER_0_16_265
*418 FILLER_0_16_27
*419 FILLER_0_16_277
*420 FILLER_0_16_289
*421 FILLER_0_16_29
*422 FILLER_0_16_3
*423 FILLER_0_16_301
*424 FILLER_0_16_307
*425 FILLER_0_16_309
*426 FILLER_0_16_321
*427 FILLER_0_16_333
*428 FILLER_0_16_41
*429 FILLER_0_16_53
*430 FILLER_0_16_65
*431 FILLER_0_16_77
*432 FILLER_0_16_83
*433 FILLER_0_16_85
*434 FILLER_0_16_97
*435 FILLER_0_17_105
*436 FILLER_0_17_111
*437 FILLER_0_17_113
*438 FILLER_0_17_125
*439 FILLER_0_17_137
*440 FILLER_0_17_149
*441 FILLER_0_17_15
*442 FILLER_0_17_161
*443 FILLER_0_17_167
*444 FILLER_0_17_169
*445 FILLER_0_17_181
*446 FILLER_0_17_193
*447 FILLER_0_17_205
*448 FILLER_0_17_217
*449 FILLER_0_17_223
*450 FILLER_0_17_225
*451 FILLER_0_17_237
*452 FILLER_0_17_249
*453 FILLER_0_17_261
*454 FILLER_0_17_27
*455 FILLER_0_17_273
*456 FILLER_0_17_279
*457 FILLER_0_17_281
*458 FILLER_0_17_293
*459 FILLER_0_17_3
*460 FILLER_0_17_305
*461 FILLER_0_17_317
*462 FILLER_0_17_329
*463 FILLER_0_17_39
*464 FILLER_0_17_51
*465 FILLER_0_17_55
*466 FILLER_0_17_57
*467 FILLER_0_17_69
*468 FILLER_0_17_81
*469 FILLER_0_17_93
*470 FILLER_0_18_109
*471 FILLER_0_18_121
*472 FILLER_0_18_133
*473 FILLER_0_18_139
*474 FILLER_0_18_141
*475 FILLER_0_18_15
*476 FILLER_0_18_153
*477 FILLER_0_18_165
*478 FILLER_0_18_177
*479 FILLER_0_18_189
*480 FILLER_0_18_195
*481 FILLER_0_18_197
*482 FILLER_0_18_209
*483 FILLER_0_18_221
*484 FILLER_0_18_233
*485 FILLER_0_18_245
*486 FILLER_0_18_251
*487 FILLER_0_18_253
*488 FILLER_0_18_265
*489 FILLER_0_18_27
*490 FILLER_0_18_277
*491 FILLER_0_18_289
*492 FILLER_0_18_29
*493 FILLER_0_18_3
*494 FILLER_0_18_301
*495 FILLER_0_18_307
*496 FILLER_0_18_309
*497 FILLER_0_18_321
*498 FILLER_0_18_333
*499 FILLER_0_18_41
*500 FILLER_0_18_53
*501 FILLER_0_18_65
*502 FILLER_0_18_77
*503 FILLER_0_18_83
*504 FILLER_0_18_85
*505 FILLER_0_18_97
*506 FILLER_0_19_105
*507 FILLER_0_19_111
*508 FILLER_0_19_113
*509 FILLER_0_19_125
*510 FILLER_0_19_137
*511 FILLER_0_19_149
*512 FILLER_0_19_15
*513 FILLER_0_19_161
*514 FILLER_0_19_167
*515 FILLER_0_19_169
*516 FILLER_0_19_181
*517 FILLER_0_19_193
*518 FILLER_0_19_205
*519 FILLER_0_19_217
*520 FILLER_0_19_223
*521 FILLER_0_19_225
*522 FILLER_0_19_237
*523 FILLER_0_19_249
*524 FILLER_0_19_261
*525 FILLER_0_19_27
*526 FILLER_0_19_273
*527 FILLER_0_19_279
*528 FILLER_0_19_281
*529 FILLER_0_19_293
*530 FILLER_0_19_3
*531 FILLER_0_19_305
*532 FILLER_0_19_317
*533 FILLER_0_19_329
*534 FILLER_0_19_39
*535 FILLER_0_19_51
*536 FILLER_0_19_55
*537 FILLER_0_19_57
*538 FILLER_0_19_69
*539 FILLER_0_19_81
*540 FILLER_0_19_93
*541 FILLER_0_1_105
*542 FILLER_0_1_111
*543 FILLER_0_1_113
*544 FILLER_0_1_125
*545 FILLER_0_1_137
*546 FILLER_0_1_149
*547 FILLER_0_1_15
*548 FILLER_0_1_161
*549 FILLER_0_1_167
*550 FILLER_0_1_169
*551 FILLER_0_1_181
*552 FILLER_0_1_193
*553 FILLER_0_1_205
*554 FILLER_0_1_217
*555 FILLER_0_1_223
*556 FILLER_0_1_225
*557 FILLER_0_1_237
*558 FILLER_0_1_249
*559 FILLER_0_1_261
*560 FILLER_0_1_27
*561 FILLER_0_1_273
*562 FILLER_0_1_279
*563 FILLER_0_1_281
*564 FILLER_0_1_293
*565 FILLER_0_1_3
*566 FILLER_0_1_305
*567 FILLER_0_1_317
*568 FILLER_0_1_329
*569 FILLER_0_1_39
*570 FILLER_0_1_51
*571 FILLER_0_1_55
*572 FILLER_0_1_57
*573 FILLER_0_1_69
*574 FILLER_0_1_81
*575 FILLER_0_1_93
*576 FILLER_0_20_109
*577 FILLER_0_20_121
*578 FILLER_0_20_133
*579 FILLER_0_20_139
*580 FILLER_0_20_141
*581 FILLER_0_20_15
*582 FILLER_0_20_153
*583 FILLER_0_20_165
*584 FILLER_0_20_177
*585 FILLER_0_20_189
*586 FILLER_0_20_195
*587 FILLER_0_20_197
*588 FILLER_0_20_209
*589 FILLER_0_20_221
*590 FILLER_0_20_233
*591 FILLER_0_20_245
*592 FILLER_0_20_251
*593 FILLER_0_20_253
*594 FILLER_0_20_265
*595 FILLER_0_20_27
*596 FILLER_0_20_277
*597 FILLER_0_20_289
*598 FILLER_0_20_29
*599 FILLER_0_20_3
*600 FILLER_0_20_301
*601 FILLER_0_20_307
*602 FILLER_0_20_309
*603 FILLER_0_20_321
*604 FILLER_0_20_333
*605 FILLER_0_20_41
*606 FILLER_0_20_53
*607 FILLER_0_20_65
*608 FILLER_0_20_77
*609 FILLER_0_20_83
*610 FILLER_0_20_85
*611 FILLER_0_20_97
*612 FILLER_0_21_105
*613 FILLER_0_21_111
*614 FILLER_0_21_113
*615 FILLER_0_21_125
*616 FILLER_0_21_137
*617 FILLER_0_21_149
*618 FILLER_0_21_15
*619 FILLER_0_21_161
*620 FILLER_0_21_167
*621 FILLER_0_21_169
*622 FILLER_0_21_181
*623 FILLER_0_21_193
*624 FILLER_0_21_205
*625 FILLER_0_21_217
*626 FILLER_0_21_223
*627 FILLER_0_21_225
*628 FILLER_0_21_237
*629 FILLER_0_21_249
*630 FILLER_0_21_261
*631 FILLER_0_21_27
*632 FILLER_0_21_273
*633 FILLER_0_21_279
*634 FILLER_0_21_281
*635 FILLER_0_21_293
*636 FILLER_0_21_3
*637 FILLER_0_21_305
*638 FILLER_0_21_317
*639 FILLER_0_21_329
*640 FILLER_0_21_39
*641 FILLER_0_21_51
*642 FILLER_0_21_55
*643 FILLER_0_21_57
*644 FILLER_0_21_69
*645 FILLER_0_21_81
*646 FILLER_0_21_93
*647 FILLER_0_22_109
*648 FILLER_0_22_121
*649 FILLER_0_22_133
*650 FILLER_0_22_139
*651 FILLER_0_22_141
*652 FILLER_0_22_15
*653 FILLER_0_22_153
*654 FILLER_0_22_165
*655 FILLER_0_22_177
*656 FILLER_0_22_189
*657 FILLER_0_22_195
*658 FILLER_0_22_197
*659 FILLER_0_22_209
*660 FILLER_0_22_221
*661 FILLER_0_22_233
*662 FILLER_0_22_245
*663 FILLER_0_22_251
*664 FILLER_0_22_253
*665 FILLER_0_22_265
*666 FILLER_0_22_27
*667 FILLER_0_22_277
*668 FILLER_0_22_289
*669 FILLER_0_22_29
*670 FILLER_0_22_3
*671 FILLER_0_22_301
*672 FILLER_0_22_307
*673 FILLER_0_22_309
*674 FILLER_0_22_321
*675 FILLER_0_22_333
*676 FILLER_0_22_41
*677 FILLER_0_22_53
*678 FILLER_0_22_65
*679 FILLER_0_22_77
*680 FILLER_0_22_83
*681 FILLER_0_22_85
*682 FILLER_0_22_97
*683 FILLER_0_23_105
*684 FILLER_0_23_111
*685 FILLER_0_23_113
*686 FILLER_0_23_125
*687 FILLER_0_23_137
*688 FILLER_0_23_149
*689 FILLER_0_23_15
*690 FILLER_0_23_161
*691 FILLER_0_23_167
*692 FILLER_0_23_169
*693 FILLER_0_23_181
*694 FILLER_0_23_193
*695 FILLER_0_23_205
*696 FILLER_0_23_217
*697 FILLER_0_23_223
*698 FILLER_0_23_225
*699 FILLER_0_23_237
*700 FILLER_0_23_249
*701 FILLER_0_23_261
*702 FILLER_0_23_27
*703 FILLER_0_23_273
*704 FILLER_0_23_279
*705 FILLER_0_23_281
*706 FILLER_0_23_293
*707 FILLER_0_23_3
*708 FILLER_0_23_305
*709 FILLER_0_23_317
*710 FILLER_0_23_329
*711 FILLER_0_23_39
*712 FILLER_0_23_51
*713 FILLER_0_23_55
*714 FILLER_0_23_57
*715 FILLER_0_23_69
*716 FILLER_0_23_81
*717 FILLER_0_23_93
*718 FILLER_0_24_109
*719 FILLER_0_24_121
*720 FILLER_0_24_133
*721 FILLER_0_24_139
*722 FILLER_0_24_141
*723 FILLER_0_24_15
*724 FILLER_0_24_153
*725 FILLER_0_24_165
*726 FILLER_0_24_177
*727 FILLER_0_24_189
*728 FILLER_0_24_195
*729 FILLER_0_24_197
*730 FILLER_0_24_209
*731 FILLER_0_24_221
*732 FILLER_0_24_233
*733 FILLER_0_24_245
*734 FILLER_0_24_251
*735 FILLER_0_24_253
*736 FILLER_0_24_265
*737 FILLER_0_24_27
*738 FILLER_0_24_277
*739 FILLER_0_24_289
*740 FILLER_0_24_29
*741 FILLER_0_24_3
*742 FILLER_0_24_301
*743 FILLER_0_24_307
*744 FILLER_0_24_309
*745 FILLER_0_24_321
*746 FILLER_0_24_333
*747 FILLER_0_24_41
*748 FILLER_0_24_53
*749 FILLER_0_24_65
*750 FILLER_0_24_77
*751 FILLER_0_24_83
*752 FILLER_0_24_85
*753 FILLER_0_24_97
*754 FILLER_0_25_105
*755 FILLER_0_25_111
*756 FILLER_0_25_113
*757 FILLER_0_25_125
*758 FILLER_0_25_137
*759 FILLER_0_25_149
*760 FILLER_0_25_15
*761 FILLER_0_25_161
*762 FILLER_0_25_167
*763 FILLER_0_25_169
*764 FILLER_0_25_181
*765 FILLER_0_25_193
*766 FILLER_0_25_205
*767 FILLER_0_25_217
*768 FILLER_0_25_223
*769 FILLER_0_25_225
*770 FILLER_0_25_237
*771 FILLER_0_25_249
*772 FILLER_0_25_261
*773 FILLER_0_25_27
*774 FILLER_0_25_273
*775 FILLER_0_25_279
*776 FILLER_0_25_281
*777 FILLER_0_25_293
*778 FILLER_0_25_3
*779 FILLER_0_25_305
*780 FILLER_0_25_317
*781 FILLER_0_25_329
*782 FILLER_0_25_39
*783 FILLER_0_25_51
*784 FILLER_0_25_55
*785 FILLER_0_25_57
*786 FILLER_0_25_69
*787 FILLER_0_25_81
*788 FILLER_0_25_93
*789 FILLER_0_26_109
*790 FILLER_0_26_121
*791 FILLER_0_26_133
*792 FILLER_0_26_139
*793 FILLER_0_26_141
*794 FILLER_0_26_15
*795 FILLER_0_26_153
*796 FILLER_0_26_165
*797 FILLER_0_26_177
*798 FILLER_0_26_189
*799 FILLER_0_26_195
*800 FILLER_0_26_197
*801 FILLER_0_26_209
*802 FILLER_0_26_221
*803 FILLER_0_26_233
*804 FILLER_0_26_245
*805 FILLER_0_26_251
*806 FILLER_0_26_253
*807 FILLER_0_26_265
*808 FILLER_0_26_27
*809 FILLER_0_26_277
*810 FILLER_0_26_289
*811 FILLER_0_26_29
*812 FILLER_0_26_3
*813 FILLER_0_26_301
*814 FILLER_0_26_307
*815 FILLER_0_26_309
*816 FILLER_0_26_321
*817 FILLER_0_26_333
*818 FILLER_0_26_41
*819 FILLER_0_26_53
*820 FILLER_0_26_65
*821 FILLER_0_26_77
*822 FILLER_0_26_83
*823 FILLER_0_26_85
*824 FILLER_0_26_97
*825 FILLER_0_27_105
*826 FILLER_0_27_111
*827 FILLER_0_27_113
*828 FILLER_0_27_125
*829 FILLER_0_27_137
*830 FILLER_0_27_149
*831 FILLER_0_27_15
*832 FILLER_0_27_161
*833 FILLER_0_27_167
*834 FILLER_0_27_169
*835 FILLER_0_27_181
*836 FILLER_0_27_193
*837 FILLER_0_27_205
*838 FILLER_0_27_217
*839 FILLER_0_27_223
*840 FILLER_0_27_225
*841 FILLER_0_27_237
*842 FILLER_0_27_249
*843 FILLER_0_27_261
*844 FILLER_0_27_27
*845 FILLER_0_27_273
*846 FILLER_0_27_279
*847 FILLER_0_27_281
*848 FILLER_0_27_293
*849 FILLER_0_27_3
*850 FILLER_0_27_305
*851 FILLER_0_27_317
*852 FILLER_0_27_329
*853 FILLER_0_27_39
*854 FILLER_0_27_51
*855 FILLER_0_27_55
*856 FILLER_0_27_57
*857 FILLER_0_27_69
*858 FILLER_0_27_81
*859 FILLER_0_27_93
*860 FILLER_0_28_109
*861 FILLER_0_28_121
*862 FILLER_0_28_133
*863 FILLER_0_28_139
*864 FILLER_0_28_141
*865 FILLER_0_28_15
*866 FILLER_0_28_153
*867 FILLER_0_28_165
*868 FILLER_0_28_177
*869 FILLER_0_28_189
*870 FILLER_0_28_195
*871 FILLER_0_28_197
*872 FILLER_0_28_209
*873 FILLER_0_28_221
*874 FILLER_0_28_233
*875 FILLER_0_28_245
*876 FILLER_0_28_251
*877 FILLER_0_28_253
*878 FILLER_0_28_265
*879 FILLER_0_28_27
*880 FILLER_0_28_277
*881 FILLER_0_28_289
*882 FILLER_0_28_29
*883 FILLER_0_28_3
*884 FILLER_0_28_301
*885 FILLER_0_28_307
*886 FILLER_0_28_309
*887 FILLER_0_28_321
*888 FILLER_0_28_333
*889 FILLER_0_28_41
*890 FILLER_0_28_53
*891 FILLER_0_28_65
*892 FILLER_0_28_77
*893 FILLER_0_28_83
*894 FILLER_0_28_85
*895 FILLER_0_28_97
*896 FILLER_0_29_105
*897 FILLER_0_29_111
*898 FILLER_0_29_113
*899 FILLER_0_29_125
*900 FILLER_0_29_137
*901 FILLER_0_29_149
*902 FILLER_0_29_15
*903 FILLER_0_29_161
*904 FILLER_0_29_167
*905 FILLER_0_29_169
*906 FILLER_0_29_181
*907 FILLER_0_29_193
*908 FILLER_0_29_205
*909 FILLER_0_29_217
*910 FILLER_0_29_223
*911 FILLER_0_29_225
*912 FILLER_0_29_237
*913 FILLER_0_29_249
*914 FILLER_0_29_261
*915 FILLER_0_29_27
*916 FILLER_0_29_273
*917 FILLER_0_29_279
*918 FILLER_0_29_281
*919 FILLER_0_29_293
*920 FILLER_0_29_3
*921 FILLER_0_29_305
*922 FILLER_0_29_317
*923 FILLER_0_29_329
*924 FILLER_0_29_39
*925 FILLER_0_29_51
*926 FILLER_0_29_55
*927 FILLER_0_29_57
*928 FILLER_0_29_69
*929 FILLER_0_29_81
*930 FILLER_0_29_93
*931 FILLER_0_2_109
*932 FILLER_0_2_121
*933 FILLER_0_2_133
*934 FILLER_0_2_139
*935 FILLER_0_2_141
*936 FILLER_0_2_15
*937 FILLER_0_2_153
*938 FILLER_0_2_165
*939 FILLER_0_2_177
*940 FILLER_0_2_189
*941 FILLER_0_2_195
*942 FILLER_0_2_197
*943 FILLER_0_2_209
*944 FILLER_0_2_221
*945 FILLER_0_2_233
*946 FILLER_0_2_245
*947 FILLER_0_2_251
*948 FILLER_0_2_253
*949 FILLER_0_2_265
*950 FILLER_0_2_27
*951 FILLER_0_2_277
*952 FILLER_0_2_289
*953 FILLER_0_2_29
*954 FILLER_0_2_3
*955 FILLER_0_2_301
*956 FILLER_0_2_307
*957 FILLER_0_2_309
*958 FILLER_0_2_321
*959 FILLER_0_2_333
*960 FILLER_0_2_41
*961 FILLER_0_2_53
*962 FILLER_0_2_65
*963 FILLER_0_2_77
*964 FILLER_0_2_83
*965 FILLER_0_2_85
*966 FILLER_0_2_97
*967 FILLER_0_30_109
*968 FILLER_0_30_121
*969 FILLER_0_30_133
*970 FILLER_0_30_139
*971 FILLER_0_30_141
*972 FILLER_0_30_15
*973 FILLER_0_30_153
*974 FILLER_0_30_165
*975 FILLER_0_30_177
*976 FILLER_0_30_189
*977 FILLER_0_30_195
*978 FILLER_0_30_197
*979 FILLER_0_30_209
*980 FILLER_0_30_221
*981 FILLER_0_30_233
*982 FILLER_0_30_245
*983 FILLER_0_30_251
*984 FILLER_0_30_253
*985 FILLER_0_30_265
*986 FILLER_0_30_27
*987 FILLER_0_30_278
*988 FILLER_0_30_29
*989 FILLER_0_30_290
*990 FILLER_0_30_3
*991 FILLER_0_30_302
*992 FILLER_0_30_309
*993 FILLER_0_30_321
*994 FILLER_0_30_333
*995 FILLER_0_30_41
*996 FILLER_0_30_53
*997 FILLER_0_30_65
*998 FILLER_0_30_77
*999 FILLER_0_30_83
*1000 FILLER_0_30_85
*1001 FILLER_0_30_97
*1002 FILLER_0_31_105
*1003 FILLER_0_31_111
*1004 FILLER_0_31_113
*1005 FILLER_0_31_125
*1006 FILLER_0_31_137
*1007 FILLER_0_31_149
*1008 FILLER_0_31_15
*1009 FILLER_0_31_161
*1010 FILLER_0_31_167
*1011 FILLER_0_31_169
*1012 FILLER_0_31_181
*1013 FILLER_0_31_193
*1014 FILLER_0_31_205
*1015 FILLER_0_31_217
*1016 FILLER_0_31_223
*1017 FILLER_0_31_225
*1018 FILLER_0_31_237
*1019 FILLER_0_31_245
*1020 FILLER_0_31_255
*1021 FILLER_0_31_261
*1022 FILLER_0_31_27
*1023 FILLER_0_31_274
*1024 FILLER_0_31_281
*1025 FILLER_0_31_293
*1026 FILLER_0_31_3
*1027 FILLER_0_31_305
*1028 FILLER_0_31_317
*1029 FILLER_0_31_329
*1030 FILLER_0_31_39
*1031 FILLER_0_31_51
*1032 FILLER_0_31_55
*1033 FILLER_0_31_57
*1034 FILLER_0_31_69
*1035 FILLER_0_31_81
*1036 FILLER_0_31_93
*1037 FILLER_0_32_109
*1038 FILLER_0_32_121
*1039 FILLER_0_32_133
*1040 FILLER_0_32_139
*1041 FILLER_0_32_141
*1042 FILLER_0_32_15
*1043 FILLER_0_32_153
*1044 FILLER_0_32_165
*1045 FILLER_0_32_177
*1046 FILLER_0_32_189
*1047 FILLER_0_32_195
*1048 FILLER_0_32_197
*1049 FILLER_0_32_207
*1050 FILLER_0_32_217
*1051 FILLER_0_32_240
*1052 FILLER_0_32_250
*1053 FILLER_0_32_253
*1054 FILLER_0_32_265
*1055 FILLER_0_32_27
*1056 FILLER_0_32_275
*1057 FILLER_0_32_279
*1058 FILLER_0_32_285
*1059 FILLER_0_32_29
*1060 FILLER_0_32_298
*1061 FILLER_0_32_3
*1062 FILLER_0_32_306
*1063 FILLER_0_32_309
*1064 FILLER_0_32_321
*1065 FILLER_0_32_333
*1066 FILLER_0_32_41
*1067 FILLER_0_32_53
*1068 FILLER_0_32_65
*1069 FILLER_0_32_77
*1070 FILLER_0_32_83
*1071 FILLER_0_32_85
*1072 FILLER_0_32_97
*1073 FILLER_0_33_105
*1074 FILLER_0_33_111
*1075 FILLER_0_33_113
*1076 FILLER_0_33_125
*1077 FILLER_0_33_137
*1078 FILLER_0_33_149
*1079 FILLER_0_33_15
*1080 FILLER_0_33_161
*1081 FILLER_0_33_167
*1082 FILLER_0_33_177
*1083 FILLER_0_33_189
*1084 FILLER_0_33_197
*1085 FILLER_0_33_213
*1086 FILLER_0_33_221
*1087 FILLER_0_33_234
*1088 FILLER_0_33_242
*1089 FILLER_0_33_247
*1090 FILLER_0_33_258
*1091 FILLER_0_33_263
*1092 FILLER_0_33_27
*1093 FILLER_0_33_275
*1094 FILLER_0_33_279
*1095 FILLER_0_33_281
*1096 FILLER_0_33_287
*1097 FILLER_0_33_294
*1098 FILLER_0_33_3
*1099 FILLER_0_33_309
*1100 FILLER_0_33_321
*1101 FILLER_0_33_333
*1102 FILLER_0_33_39
*1103 FILLER_0_33_51
*1104 FILLER_0_33_55
*1105 FILLER_0_33_57
*1106 FILLER_0_33_69
*1107 FILLER_0_33_81
*1108 FILLER_0_33_93
*1109 FILLER_0_34_109
*1110 FILLER_0_34_121
*1111 FILLER_0_34_133
*1112 FILLER_0_34_139
*1113 FILLER_0_34_141
*1114 FILLER_0_34_15
*1115 FILLER_0_34_153
*1116 FILLER_0_34_174
*1117 FILLER_0_34_195
*1118 FILLER_0_34_197
*1119 FILLER_0_34_206
*1120 FILLER_0_34_212
*1121 FILLER_0_34_220
*1122 FILLER_0_34_231
*1123 FILLER_0_34_235
*1124 FILLER_0_34_250
*1125 FILLER_0_34_266
*1126 FILLER_0_34_27
*1127 FILLER_0_34_29
*1128 FILLER_0_34_291
*1129 FILLER_0_34_3
*1130 FILLER_0_34_303
*1131 FILLER_0_34_307
*1132 FILLER_0_34_314
*1133 FILLER_0_34_326
*1134 FILLER_0_34_334
*1135 FILLER_0_34_41
*1136 FILLER_0_34_53
*1137 FILLER_0_34_65
*1138 FILLER_0_34_77
*1139 FILLER_0_34_83
*1140 FILLER_0_34_85
*1141 FILLER_0_34_97
*1142 FILLER_0_35_105
*1143 FILLER_0_35_111
*1144 FILLER_0_35_113
*1145 FILLER_0_35_125
*1146 FILLER_0_35_15
*1147 FILLER_0_35_150
*1148 FILLER_0_35_166
*1149 FILLER_0_35_169
*1150 FILLER_0_35_177
*1151 FILLER_0_35_187
*1152 FILLER_0_35_196
*1153 FILLER_0_35_200
*1154 FILLER_0_35_210
*1155 FILLER_0_35_216
*1156 FILLER_0_35_221
*1157 FILLER_0_35_225
*1158 FILLER_0_35_233
*1159 FILLER_0_35_247
*1160 FILLER_0_35_259
*1161 FILLER_0_35_268
*1162 FILLER_0_35_27
*1163 FILLER_0_35_281
*1164 FILLER_0_35_3
*1165 FILLER_0_35_307
*1166 FILLER_0_35_320
*1167 FILLER_0_35_332
*1168 FILLER_0_35_39
*1169 FILLER_0_35_51
*1170 FILLER_0_35_55
*1171 FILLER_0_35_57
*1172 FILLER_0_35_69
*1173 FILLER_0_35_81
*1174 FILLER_0_35_93
*1175 FILLER_0_36_109
*1176 FILLER_0_36_121
*1177 FILLER_0_36_141
*1178 FILLER_0_36_15
*1179 FILLER_0_36_165
*1180 FILLER_0_36_197
*1181 FILLER_0_36_220
*1182 FILLER_0_36_227
*1183 FILLER_0_36_239
*1184 FILLER_0_36_251
*1185 FILLER_0_36_253
*1186 FILLER_0_36_27
*1187 FILLER_0_36_270
*1188 FILLER_0_36_276
*1189 FILLER_0_36_281
*1190 FILLER_0_36_29
*1191 FILLER_0_36_3
*1192 FILLER_0_36_302
*1193 FILLER_0_36_309
*1194 FILLER_0_36_322
*1195 FILLER_0_36_334
*1196 FILLER_0_36_41
*1197 FILLER_0_36_53
*1198 FILLER_0_36_65
*1199 FILLER_0_36_77
*1200 FILLER_0_36_83
*1201 FILLER_0_36_85
*1202 FILLER_0_36_97
*1203 FILLER_0_37_105
*1204 FILLER_0_37_111
*1205 FILLER_0_37_113
*1206 FILLER_0_37_125
*1207 FILLER_0_37_137
*1208 FILLER_0_37_143
*1209 FILLER_0_37_15
*1210 FILLER_0_37_154
*1211 FILLER_0_37_160
*1212 FILLER_0_37_164
*1213 FILLER_0_37_186
*1214 FILLER_0_37_196
*1215 FILLER_0_37_217
*1216 FILLER_0_37_223
*1217 FILLER_0_37_247
*1218 FILLER_0_37_254
*1219 FILLER_0_37_27
*1220 FILLER_0_37_271
*1221 FILLER_0_37_279
*1222 FILLER_0_37_288
*1223 FILLER_0_37_3
*1224 FILLER_0_37_307
*1225 FILLER_0_37_320
*1226 FILLER_0_37_332
*1227 FILLER_0_37_39
*1228 FILLER_0_37_51
*1229 FILLER_0_37_55
*1230 FILLER_0_37_57
*1231 FILLER_0_37_69
*1232 FILLER_0_37_81
*1233 FILLER_0_37_93
*1234 FILLER_0_38_10
*1235 FILLER_0_38_102
*1236 FILLER_0_38_106
*1237 FILLER_0_38_110
*1238 FILLER_0_38_113
*1239 FILLER_0_38_14
*1240 FILLER_0_38_141
*1241 FILLER_0_38_155
*1242 FILLER_0_38_167
*1243 FILLER_0_38_169
*1244 FILLER_0_38_176
*1245 FILLER_0_38_18
*1246 FILLER_0_38_197
*1247 FILLER_0_38_22
*1248 FILLER_0_38_225
*1249 FILLER_0_38_237
*1250 FILLER_0_38_249
*1251 FILLER_0_38_270
*1252 FILLER_0_38_279
*1253 FILLER_0_38_287
*1254 FILLER_0_38_305
*1255 FILLER_0_38_32
*1256 FILLER_0_38_330
*1257 FILLER_0_38_38
*1258 FILLER_0_38_42
*1259 FILLER_0_38_46
*1260 FILLER_0_38_50
*1261 FILLER_0_38_54
*1262 FILLER_0_38_57
*1263 FILLER_0_38_6
*1264 FILLER_0_38_62
*1265 FILLER_0_38_66
*1266 FILLER_0_38_70
*1267 FILLER_0_38_74
*1268 FILLER_0_38_78
*1269 FILLER_0_38_88
*1270 FILLER_0_38_94
*1271 FILLER_0_38_98
*1272 FILLER_0_3_105
*1273 FILLER_0_3_111
*1274 FILLER_0_3_113
*1275 FILLER_0_3_125
*1276 FILLER_0_3_137
*1277 FILLER_0_3_149
*1278 FILLER_0_3_15
*1279 FILLER_0_3_161
*1280 FILLER_0_3_167
*1281 FILLER_0_3_169
*1282 FILLER_0_3_181
*1283 FILLER_0_3_193
*1284 FILLER_0_3_205
*1285 FILLER_0_3_217
*1286 FILLER_0_3_223
*1287 FILLER_0_3_225
*1288 FILLER_0_3_237
*1289 FILLER_0_3_249
*1290 FILLER_0_3_261
*1291 FILLER_0_3_27
*1292 FILLER_0_3_273
*1293 FILLER_0_3_279
*1294 FILLER_0_3_281
*1295 FILLER_0_3_293
*1296 FILLER_0_3_3
*1297 FILLER_0_3_305
*1298 FILLER_0_3_317
*1299 FILLER_0_3_329
*1300 FILLER_0_3_39
*1301 FILLER_0_3_51
*1302 FILLER_0_3_55
*1303 FILLER_0_3_57
*1304 FILLER_0_3_69
*1305 FILLER_0_3_81
*1306 FILLER_0_3_93
*1307 FILLER_0_4_109
*1308 FILLER_0_4_121
*1309 FILLER_0_4_133
*1310 FILLER_0_4_139
*1311 FILLER_0_4_141
*1312 FILLER_0_4_15
*1313 FILLER_0_4_153
*1314 FILLER_0_4_165
*1315 FILLER_0_4_177
*1316 FILLER_0_4_189
*1317 FILLER_0_4_195
*1318 FILLER_0_4_197
*1319 FILLER_0_4_209
*1320 FILLER_0_4_221
*1321 FILLER_0_4_233
*1322 FILLER_0_4_245
*1323 FILLER_0_4_251
*1324 FILLER_0_4_253
*1325 FILLER_0_4_265
*1326 FILLER_0_4_27
*1327 FILLER_0_4_277
*1328 FILLER_0_4_289
*1329 FILLER_0_4_29
*1330 FILLER_0_4_3
*1331 FILLER_0_4_301
*1332 FILLER_0_4_307
*1333 FILLER_0_4_309
*1334 FILLER_0_4_321
*1335 FILLER_0_4_333
*1336 FILLER_0_4_41
*1337 FILLER_0_4_53
*1338 FILLER_0_4_65
*1339 FILLER_0_4_77
*1340 FILLER_0_4_83
*1341 FILLER_0_4_85
*1342 FILLER_0_4_97
*1343 FILLER_0_5_105
*1344 FILLER_0_5_111
*1345 FILLER_0_5_113
*1346 FILLER_0_5_125
*1347 FILLER_0_5_137
*1348 FILLER_0_5_149
*1349 FILLER_0_5_15
*1350 FILLER_0_5_161
*1351 FILLER_0_5_167
*1352 FILLER_0_5_169
*1353 FILLER_0_5_181
*1354 FILLER_0_5_193
*1355 FILLER_0_5_205
*1356 FILLER_0_5_217
*1357 FILLER_0_5_223
*1358 FILLER_0_5_225
*1359 FILLER_0_5_237
*1360 FILLER_0_5_249
*1361 FILLER_0_5_261
*1362 FILLER_0_5_27
*1363 FILLER_0_5_273
*1364 FILLER_0_5_279
*1365 FILLER_0_5_281
*1366 FILLER_0_5_293
*1367 FILLER_0_5_3
*1368 FILLER_0_5_305
*1369 FILLER_0_5_317
*1370 FILLER_0_5_329
*1371 FILLER_0_5_39
*1372 FILLER_0_5_51
*1373 FILLER_0_5_55
*1374 FILLER_0_5_57
*1375 FILLER_0_5_69
*1376 FILLER_0_5_81
*1377 FILLER_0_5_93
*1378 FILLER_0_6_109
*1379 FILLER_0_6_121
*1380 FILLER_0_6_133
*1381 FILLER_0_6_139
*1382 FILLER_0_6_141
*1383 FILLER_0_6_15
*1384 FILLER_0_6_153
*1385 FILLER_0_6_165
*1386 FILLER_0_6_177
*1387 FILLER_0_6_189
*1388 FILLER_0_6_195
*1389 FILLER_0_6_197
*1390 FILLER_0_6_209
*1391 FILLER_0_6_221
*1392 FILLER_0_6_233
*1393 FILLER_0_6_245
*1394 FILLER_0_6_251
*1395 FILLER_0_6_253
*1396 FILLER_0_6_265
*1397 FILLER_0_6_27
*1398 FILLER_0_6_277
*1399 FILLER_0_6_289
*1400 FILLER_0_6_29
*1401 FILLER_0_6_3
*1402 FILLER_0_6_301
*1403 FILLER_0_6_307
*1404 FILLER_0_6_309
*1405 FILLER_0_6_321
*1406 FILLER_0_6_333
*1407 FILLER_0_6_41
*1408 FILLER_0_6_53
*1409 FILLER_0_6_65
*1410 FILLER_0_6_77
*1411 FILLER_0_6_83
*1412 FILLER_0_6_85
*1413 FILLER_0_6_97
*1414 FILLER_0_7_105
*1415 FILLER_0_7_111
*1416 FILLER_0_7_113
*1417 FILLER_0_7_125
*1418 FILLER_0_7_137
*1419 FILLER_0_7_149
*1420 FILLER_0_7_15
*1421 FILLER_0_7_161
*1422 FILLER_0_7_167
*1423 FILLER_0_7_169
*1424 FILLER_0_7_181
*1425 FILLER_0_7_193
*1426 FILLER_0_7_205
*1427 FILLER_0_7_217
*1428 FILLER_0_7_223
*1429 FILLER_0_7_225
*1430 FILLER_0_7_237
*1431 FILLER_0_7_249
*1432 FILLER_0_7_261
*1433 FILLER_0_7_27
*1434 FILLER_0_7_273
*1435 FILLER_0_7_279
*1436 FILLER_0_7_281
*1437 FILLER_0_7_293
*1438 FILLER_0_7_3
*1439 FILLER_0_7_305
*1440 FILLER_0_7_317
*1441 FILLER_0_7_329
*1442 FILLER_0_7_39
*1443 FILLER_0_7_51
*1444 FILLER_0_7_55
*1445 FILLER_0_7_57
*1446 FILLER_0_7_69
*1447 FILLER_0_7_81
*1448 FILLER_0_7_93
*1449 FILLER_0_8_109
*1450 FILLER_0_8_121
*1451 FILLER_0_8_133
*1452 FILLER_0_8_139
*1453 FILLER_0_8_141
*1454 FILLER_0_8_15
*1455 FILLER_0_8_153
*1456 FILLER_0_8_165
*1457 FILLER_0_8_177
*1458 FILLER_0_8_189
*1459 FILLER_0_8_195
*1460 FILLER_0_8_197
*1461 FILLER_0_8_209
*1462 FILLER_0_8_221
*1463 FILLER_0_8_233
*1464 FILLER_0_8_245
*1465 FILLER_0_8_251
*1466 FILLER_0_8_253
*1467 FILLER_0_8_265
*1468 FILLER_0_8_27
*1469 FILLER_0_8_277
*1470 FILLER_0_8_289
*1471 FILLER_0_8_29
*1472 FILLER_0_8_3
*1473 FILLER_0_8_301
*1474 FILLER_0_8_307
*1475 FILLER_0_8_309
*1476 FILLER_0_8_321
*1477 FILLER_0_8_333
*1478 FILLER_0_8_41
*1479 FILLER_0_8_53
*1480 FILLER_0_8_65
*1481 FILLER_0_8_77
*1482 FILLER_0_8_83
*1483 FILLER_0_8_85
*1484 FILLER_0_8_97
*1485 FILLER_0_9_105
*1486 FILLER_0_9_111
*1487 FILLER_0_9_113
*1488 FILLER_0_9_125
*1489 FILLER_0_9_137
*1490 FILLER_0_9_149
*1491 FILLER_0_9_15
*1492 FILLER_0_9_161
*1493 FILLER_0_9_167
*1494 FILLER_0_9_169
*1495 FILLER_0_9_181
*1496 FILLER_0_9_193
*1497 FILLER_0_9_205