*SPEF "ieee 1481-1999"
*DESIGN "tt_um_hpretl_tt06_tempsens"
*DATE "11:11:11 Fri 11 11, 1111"
*VENDOR "OpenRCX"
*PROGRAM "Parallel Extraction"
*VERSION "1.0"
*DESIGN_FLOW "NAME_SCOPE LOCAL" "PIN_CAP NONE"
*DIVIDER /
*DELIMITER :
*BUS_DELIMITER []
*T_UNIT 1 NS
*C_UNIT 1 PF
*R_UNIT 1 OHM
*L_UNIT 1 HENRY

*NAME_MAP
*3 clk
*4 ena
*5 rst_n
*6 ui_in[0]
*7 ui_in[1]
*8 ui_in[2]
*9 ui_in[3]
*10 ui_in[4]
*11 ui_in[5]
*12 ui_in[6]
*13 ui_in[7]
*14 uio_in[0]
*15 uio_in[1]
*16 uio_in[2]
*17 uio_in[3]
*18 uio_in[4]
*19 uio_in[5]
*20 uio_in[6]
*21 uio_in[7]
*22 net43
*23 net44
*24 net45
*25 net46
*26 net52
*27 net53
*28 net54
*29 net55
*30 net47
*31 net48
*32 net49
*33 net50
*34 uio_out[4]
*35 uio_out[5]
*36 uio_out[6]
*37 uio_out[7]
*38 uo_out[0]
*39 uo_out[1]
*40 uo_out[2]
*41 uo_out[3]
*42 uo_out[4]
*43 uo_out[5]
*44 uo_out[6]
*45 uo_out[7]
*46 _004_
*47 _005_
*48 _006_
*49 _007_
*50 _008_
*51 _009_
*52 _010_
*53 _011_
*54 _012_
*55 _013_
*56 _014_
*57 _015_
*58 _016_
*59 _017_
*60 _018_
*61 _019_
*62 _020_
*63 _021_
*64 _022_
*65 _023_
*66 _024_
*67 _025_
*68 _026_
*69 _027_
*70 _028_
*71 _029_
*72 _030_
*73 _031_
*74 _032_
*75 _033_
*76 _034_
*77 _035_
*78 _036_
*79 _037_
*80 _038_
*81 _039_
*82 _040_
*83 _041_
*84 _042_
*85 _043_
*86 _044_
*87 _045_
*88 _046_
*89 _047_
*90 _048_
*91 _049_
*92 _050_
*93 _051_
*94 _052_
*95 _053_
*96 _054_
*97 _055_
*98 _056_
*99 _057_
*100 _058_
*101 _059_
*102 _060_
*103 _061_
*104 _062_
*105 _063_
*106 _064_
*107 _065_
*108 _066_
*109 _067_
*110 _068_
*111 _069_
*112 _070_
*113 _071_
*114 _072_
*115 _073_
*116 _074_
*117 _075_
*118 _076_
*119 _077_
*120 _078_
*121 _079_
*122 _080_
*123 _081_
*124 _082_
*125 _083_
*126 _084_
*127 _085_
*128 _086_
*129 _087_
*130 _088_
*131 _089_
*132 _090_
*133 _091_
*134 _092_
*135 _093_
*136 _094_
*137 _095_
*138 _096_
*139 _097_
*140 _098_
*141 _099_
*142 _100_
*143 _101_
*144 _102_
*145 _103_
*146 _104_
*147 _105_
*148 _106_
*149 _107_
*150 _108_
*151 _109_
*152 _110_
*153 _111_
*154 _112_
*155 _113_
*156 _114_
*157 _115_
*158 _116_
*159 _117_
*160 _118_
*161 _119_
*162 _120_
*163 _121_
*164 _122_
*165 _123_
*166 _124_
*167 _125_
*168 _126_
*169 _127_
*170 _128_
*171 _129_
*172 _130_
*173 _131_
*174 _132_
*175 _133_
*176 _134_
*177 _135_
*178 _136_
*179 _137_
*180 _138_
*181 _139_
*182 _140_
*183 _141_
*184 _142_
*185 _143_
*186 _144_
*187 _145_
*188 _146_
*189 _147_
*190 _148_
*191 _149_
*192 _150_
*193 _151_
*194 _152_
*195 _153_
*196 _154_
*197 _155_
*198 _156_
*199 _157_
*200 _158_
*201 _159_
*202 _160_
*203 _161_
*204 _162_
*205 _163_
*206 _164_
*207 _165_
*208 _166_
*209 _167_
*210 _168_
*211 _169_
*212 _170_
*213 _171_
*214 _172_
*215 _173_
*216 _174_
*217 _175_
*218 _176_
*219 _177_
*220 _178_
*221 _179_
*222 _180_
*223 _181_
*224 _182_
*225 _183_
*226 _184_
*227 _185_
*228 _186_
*229 _187_
*230 _188_
*231 _189_
*232 _190_
*233 _191_
*234 _192_
*235 _193_
*236 _194_
*237 _195_
*238 _196_
*239 _197_
*240 _198_
*241 _199_
*242 _200_
*243 _201_
*244 _202_
*245 _203_
*246 _204_
*247 _205_
*248 _206_
*249 _207_
*250 _208_
*251 _209_
*252 _210_
*253 _211_
*254 _212_
*255 _213_
*256 _214_
*257 _215_
*258 _216_
*259 _217_
*260 _218_
*261 _219_
*262 _220_
*263 _221_
*264 _222_
*265 clknet_0_clk
*266 clknet_2_0__leaf_clk
*267 clknet_2_1__leaf_clk
*268 clknet_2_2__leaf_clk
*269 clknet_2_3__leaf_clk
*270 net1
*271 net10
*272 net11
*273 net12
*274 net13
*275 net14
*276 net15
*277 net16
*278 net17
*279 net18
*280 net19
*281 net2
*282 net20
*283 net21
*284 net22
*285 net23
*286 net24
*287 net25
*288 net26
*289 net27
*290 net28
*291 net29
*292 net3
*293 net30
*294 net31
*295 net32
*296 net33
*297 net34
*298 net35
*299 net36
*300 net37
*301 net38
*302 net39
*303 net4
*304 net40
*305 net41
*306 net42
*307 net5
*308 net51
*309 net56
*310 net57
*311 net58
*312 net59
*313 net6
*314 net60
*315 net61
*316 net62
*317 net63
*318 net64
*319 net65
*320 net66
*321 net67
*322 net68
*323 net69
*324 net7
*325 net8
*326 net9
*327 res1_n
*328 res2_n
*329 ts\.o_res\[0\]
*330 ts\.o_res\[10\]
*331 ts\.o_res\[11\]
*332 ts\.o_res\[12\]
*333 ts\.o_res\[13\]
*334 ts\.o_res\[14\]
*335 ts\.o_res\[15\]
*336 ts\.o_res\[16\]
*337 ts\.o_res\[17\]
*338 ts\.o_res\[18\]
*339 ts\.o_res\[19\]
*340 ts\.o_res\[1\]
*341 ts\.o_res\[2\]
*342 ts\.o_res\[3\]
*343 ts\.o_res\[4\]
*344 ts\.o_res\[5\]
*345 ts\.o_res\[6\]
*346 ts\.o_res\[7\]
*347 ts\.o_res\[8\]
*348 ts\.o_res\[9\]
*349 ts\.ts_core\.dac\.parallel_cells\[0\]\.vdac_batch\.en_pupd
*350 ts\.ts_core\.dac\.parallel_cells\[0\]\.vdac_batch\.en_vref
*351 ts\.ts_core\.dac\.parallel_cells\[0\]\.vdac_batch\.npu_pd
*352 ts\.ts_core\.dac\.parallel_cells\[1\]\.vdac_batch\.en_pupd
*353 ts\.ts_core\.dac\.parallel_cells\[1\]\.vdac_batch\.en_vref
*354 ts\.ts_core\.dac\.parallel_cells\[1\]\.vdac_batch\.npu_pd
*355 ts\.ts_core\.dac\.parallel_cells\[2\]\.vdac_batch\.en_pupd
*356 ts\.ts_core\.dac\.parallel_cells\[2\]\.vdac_batch\.en_vref
*357 ts\.ts_core\.dac\.parallel_cells\[2\]\.vdac_batch\.npu_pd
*358 ts\.ts_core\.dac\.parallel_cells\[3\]\.vdac_batch\.en_pupd
*359 ts\.ts_core\.dac\.parallel_cells\[3\]\.vdac_batch\.en_vref
*360 ts\.ts_core\.dac\.parallel_cells\[3\]\.vdac_batch\.npu_pd
*361 ts\.ts_core\.dac\.parallel_cells\[4\]\.vdac_batch\.en_pupd
*362 ts\.ts_core\.dac\.parallel_cells\[4\]\.vdac_batch\.en_vref
*363 ts\.ts_core\.dac\.parallel_cells\[4\]\.vdac_batch\.npu_pd
*364 ts\.ts_core\.dac\.vdac_single\.en_pupd
*365 ts\.ts_core\.dac_vout_ana_
*366 ts\.ts_core\.dcdel_capnode_ana_
*367 ts\.ts_core\.dcdel_out_n
*368 ts\.ts_core\.dummy_ana_\[0\]
*369 ts\.ts_core\.dummy_ana_\[10\]
*370 ts\.ts_core\.dummy_ana_\[11\]
*371 ts\.ts_core\.dummy_ana_\[12\]
*372 ts\.ts_core\.dummy_ana_\[13\]
*373 ts\.ts_core\.dummy_ana_\[14\]
*374 ts\.ts_core\.dummy_ana_\[15\]
*375 ts\.ts_core\.dummy_ana_\[1\]
*376 ts\.ts_core\.dummy_ana_\[2\]
*377 ts\.ts_core\.dummy_ana_\[3\]
*378 ts\.ts_core\.dummy_ana_\[4\]
*379 ts\.ts_core\.dummy_ana_\[5\]
*380 ts\.ts_core\.dummy_ana_\[6\]
*381 ts\.ts_core\.dummy_ana_\[7\]
*382 ts\.ts_core\.dummy_ana_\[8\]
*383 ts\.ts_core\.dummy_ana_\[9\]
*384 ts\.ts_core\.i_precharge_n
*385 ts\.ts_core\.o_tempdelay
*386 ts\.ts_core\.tempdelay_async
*387 ts\.ts_core\.tempdelay_sync1
*388 ts\.ts_ctrl\.state\[0\]
*389 ts\.ts_ctrl\.state\[1\]
*390 ts\.ts_ctrl\.state\[2\]
*391 ts\.ts_ctrl\.temp_ctr\[0\]
*392 ts\.ts_ctrl\.temp_ctr\[10\]
*393 ts\.ts_ctrl\.temp_ctr\[11\]
*394 ts\.ts_ctrl\.temp_ctr\[12\]
*395 ts\.ts_ctrl\.temp_ctr\[13\]
*396 ts\.ts_ctrl\.temp_ctr\[14\]
*397 ts\.ts_ctrl\.temp_ctr\[15\]
*398 ts\.ts_ctrl\.temp_ctr\[16\]
*399 ts\.ts_ctrl\.temp_ctr\[17\]
*400 ts\.ts_ctrl\.temp_ctr\[18\]
*401 ts\.ts_ctrl\.temp_ctr\[19\]
*402 ts\.ts_ctrl\.temp_ctr\[1\]
*403 ts\.ts_ctrl\.temp_ctr\[2\]
*404 ts\.ts_ctrl\.temp_ctr\[3\]
*405 ts\.ts_ctrl\.temp_ctr\[4\]
*406 ts\.ts_ctrl\.temp_ctr\[5\]
*407 ts\.ts_ctrl\.temp_ctr\[6\]
*408 ts\.ts_ctrl\.temp_ctr\[7\]
*409 ts\.ts_ctrl\.temp_ctr\[8\]
*410 ts\.ts_ctrl\.temp_ctr\[9\]
*411 FILLER_0_0_109
*412 FILLER_0_0_113
*413 FILLER_0_0_125
*414 FILLER_0_0_137
*415 FILLER_0_0_141
*416 FILLER_0_0_15
*417 FILLER_0_0_153
*418 FILLER_0_0_165
*419 FILLER_0_0_169
*420 FILLER_0_0_181
*421 FILLER_0_0_193
*422 FILLER_0_0_197
*423 FILLER_0_0_209
*424 FILLER_0_0_221
*425 FILLER_0_0_225
*426 FILLER_0_0_237
*427 FILLER_0_0_249
*428 FILLER_0_0_253
*429 FILLER_0_0_265
*430 FILLER_0_0_27
*431 FILLER_0_0_277
*432 FILLER_0_0_281
*433 FILLER_0_0_29
*434 FILLER_0_0_293
*435 FILLER_0_0_3
*436 FILLER_0_0_305
*437 FILLER_0_0_309
*438 FILLER_0_0_321
*439 FILLER_0_0_333
*440 FILLER_0_0_41
*441 FILLER_0_0_53
*442 FILLER_0_0_57
*443 FILLER_0_0_69
*444 FILLER_0_0_81
*445 FILLER_0_0_85
*446 FILLER_0_0_97
*447 FILLER_0_10_109
*448 FILLER_0_10_121
*449 FILLER_0_10_133
*450 FILLER_0_10_139
*451 FILLER_0_10_141
*452 FILLER_0_10_15
*453 FILLER_0_10_153
*454 FILLER_0_10_165
*455 FILLER_0_10_177
*456 FILLER_0_10_189
*457 FILLER_0_10_195
*458 FILLER_0_10_197
*459 FILLER_0_10_209
*460 FILLER_0_10_221
*461 FILLER_0_10_233
*462 FILLER_0_10_245
*463 FILLER_0_10_251
*464 FILLER_0_10_253
*465 FILLER_0_10_265
*466 FILLER_0_10_27
*467 FILLER_0_10_277
*468 FILLER_0_10_289
*469 FILLER_0_10_29
*470 FILLER_0_10_3
*471 FILLER_0_10_301
*472 FILLER_0_10_307
*473 FILLER_0_10_309
*474 FILLER_0_10_321
*475 FILLER_0_10_333
*476 FILLER_0_10_41
*477 FILLER_0_10_53
*478 FILLER_0_10_65
*479 FILLER_0_10_77
*480 FILLER_0_10_83
*481 FILLER_0_10_85
*482 FILLER_0_10_97
*483 FILLER_0_11_105
*484 FILLER_0_11_111
*485 FILLER_0_11_113
*486 FILLER_0_11_125
*487 FILLER_0_11_137
*488 FILLER_0_11_149
*489 FILLER_0_11_15
*490 FILLER_0_11_161
*491 FILLER_0_11_167
*492 FILLER_0_11_169
*493 FILLER_0_11_181
*494 FILLER_0_11_193
*495 FILLER_0_11_205
*496 FILLER_0_11_217
*497 FILLER_0_11_223
*498 FILLER_0_11_225
*499 FILLER_0_11_237
*500 FILLER_0_11_249
*501 FILLER_0_11_261
*502 FILLER_0_11_27
*503 FILLER_0_11_273
*504 FILLER_0_11_279
*505 FILLER_0_11_281
*506 FILLER_0_11_293
*507 FILLER_0_11_3
*508 FILLER_0_11_305
*509 FILLER_0_11_317
*510 FILLER_0_11_329
*511 FILLER_0_11_39
*512 FILLER_0_11_51
*513 FILLER_0_11_55
*514 FILLER_0_11_57
*515 FILLER_0_11_69
*516 FILLER_0_11_81
*517 FILLER_0_11_93
*518 FILLER_0_12_109
*519 FILLER_0_12_121
*520 FILLER_0_12_133
*521 FILLER_0_12_139
*522 FILLER_0_12_141
*523 FILLER_0_12_15
*524 FILLER_0_12_153
*525 FILLER_0_12_165
*526 FILLER_0_12_177
*527 FILLER_0_12_189
*528 FILLER_0_12_195
*529 FILLER_0_12_197
*530 FILLER_0_12_209
*531 FILLER_0_12_221
*532 FILLER_0_12_233
*533 FILLER_0_12_245
*534 FILLER_0_12_251
*535 FILLER_0_12_253
*536 FILLER_0_12_265
*537 FILLER_0_12_27
*538 FILLER_0_12_277
*539 FILLER_0_12_289
*540 FILLER_0_12_29
*541 FILLER_0_12_3
*542 FILLER_0_12_301
*543 FILLER_0_12_307
*544 FILLER_0_12_309
*545 FILLER_0_12_321
*546 FILLER_0_12_333
*547 FILLER_0_12_41
*548 FILLER_0_12_53
*549 FILLER_0_12_65
*550 FILLER_0_12_77
*551 FILLER_0_12_83
*552 FILLER_0_12_85
*553 FILLER_0_12_97
*554 FILLER_0_13_105
*555 FILLER_0_13_111
*556 FILLER_0_13_113
*557 FILLER_0_13_125
*558 FILLER_0_13_137
*559 FILLER_0_13_149
*560 FILLER_0_13_15
*561 FILLER_0_13_161
*562 FILLER_0_13_167
*563 FILLER_0_13_169
*564 FILLER_0_13_181
*565 FILLER_0_13_193
*566 FILLER_0_13_205
*567 FILLER_0_13_217
*568 FILLER_0_13_223
*569 FILLER_0_13_225
*570 FILLER_0_13_237
*571 FILLER_0_13_249
*572 FILLER_0_13_261
*573 FILLER_0_13_27
*574 FILLER_0_13_273
*575 FILLER_0_13_279
*576 FILLER_0_13_281
*577 FILLER_0_13_293
*578 FILLER_0_13_3
*579 FILLER_0_13_305
*580 FILLER_0_13_317
*581 FILLER_0_13_329
*582 FILLER_0_13_39
*583 FILLER_0_13_51
*584 FILLER_0_13_55
*585 FILLER_0_13_57
*586 FILLER_0_13_69
*587 FILLER_0_13_81
*588 FILLER_0_13_93
*589 FILLER_0_14_109
*590 FILLER_0_14_121
*591 FILLER_0_14_133
*592 FILLER_0_14_139
*593 FILLER_0_14_141
*594 FILLER_0_14_15
*595 FILLER_0_14_153
*596 FILLER_0_14_165
*597 FILLER_0_14_177
*598 FILLER_0_14_189
*599 FILLER_0_14_195
*600 FILLER_0_14_197
*601 FILLER_0_14_209
*602 FILLER_0_14_221
*603 FILLER_0_14_233
*604 FILLER_0_14_245
*605 FILLER_0_14_251
*606 FILLER_0_14_253
*607 FILLER_0_14_265
*608 FILLER_0_14_27
*609 FILLER_0_14_277
*610 FILLER_0_14_289
*611 FILLER_0_14_29
*612 FILLER_0_14_3
*613 FILLER_0_14_301
*614 FILLER_0_14_307
*615 FILLER_0_14_309
*616 FILLER_0_14_321
*617 FILLER_0_14_333
*618 FILLER_0_14_41
*619 FILLER_0_14_53
*620 FILLER_0_14_65
*621 FILLER_0_14_77
*622 FILLER_0_14_83
*623 FILLER_0_14_85
*624 FILLER_0_14_97
*625 FILLER_0_15_105
*626 FILLER_0_15_111
*627 FILLER_0_15_113
*628 FILLER_0_15_125
*629 FILLER_0_15_137
*630 FILLER_0_15_149
*631 FILLER_0_15_15
*632 FILLER_0_15_161
*633 FILLER_0_15_167
*634 FILLER_0_15_169
*635 FILLER_0_15_181
*636 FILLER_0_15_193
*637 FILLER_0_15_205
*638 FILLER_0_15_217
*639 FILLER_0_15_223
*640 FILLER_0_15_225
*641 FILLER_0_15_237
*642 FILLER_0_15_249
*643 FILLER_0_15_261
*644 FILLER_0_15_27
*645 FILLER_0_15_273
*646 FILLER_0_15_279
*647 FILLER_0_15_281
*648 FILLER_0_15_293
*649 FILLER_0_15_3
*650 FILLER_0_15_305
*651 FILLER_0_15_317
*652 FILLER_0_15_329
*653 FILLER_0_15_39
*654 FILLER_0_15_51
*655 FILLER_0_15_55
*656 FILLER_0_15_57
*657 FILLER_0_15_69
*658 FILLER_0_15_81
*659 FILLER_0_15_93
*660 FILLER_0_16_109
*661 FILLER_0_16_121
*662 FILLER_0_16_133
*663 FILLER_0_16_139
*664 FILLER_0_16_141
*665 FILLER_0_16_15
*666 FILLER_0_16_153
*667 FILLER_0_16_165
*668 FILLER_0_16_177
*669 FILLER_0_16_189
*670 FILLER_0_16_195
*671 FILLER_0_16_197
*672 FILLER_0_16_209
*673 FILLER_0_16_221
*674 FILLER_0_16_233
*675 FILLER_0_16_245
*676 FILLER_0_16_251
*677 FILLER_0_16_253
*678 FILLER_0_16_265
*679 FILLER_0_16_27
*680 FILLER_0_16_277
*681 FILLER_0_16_289
*682 FILLER_0_16_29
*683 FILLER_0_16_3
*684 FILLER_0_16_301
*685 FILLER_0_16_307
*686 FILLER_0_16_309
*687 FILLER_0_16_321
*688 FILLER_0_16_333
*689 FILLER_0_16_41
*690 FILLER_0_16_53
*691 FILLER_0_16_65
*692 FILLER_0_16_77
*693 FILLER_0_16_83
*694 FILLER_0_16_85
*695 FILLER_0_16_97
*696 FILLER_0_17_105
*697 FILLER_0_17_111
*698 FILLER_0_17_113
*699 FILLER_0_17_125
*700 FILLER_0_17_137
*701 FILLER_0_17_149
*702 FILLER_0_17_15
*703 FILLER_0_17_161
*704 FILLER_0_17_167
*705 FILLER_0_17_169
*706 FILLER_0_17_181
*707 FILLER_0_17_193
*708 FILLER_0_17_205
*709 FILLER_0_17_217
*710 FILLER_0_17_223
*711 FILLER_0_17_225
*712 FILLER_0_17_237
*713 FILLER_0_17_249
*714 FILLER_0_17_261
*715 FILLER_0_17_27
*716 FILLER_0_17_273
*717 FILLER_0_17_279
*718 FILLER_0_17_281
*719 FILLER_0_17_293
*720 FILLER_0_17_3
*721 FILLER_0_17_305
*722 FILLER_0_17_317
*723 FILLER_0_17_329
*724 FILLER_0_17_39
*725 FILLER_0_17_51
*726 FILLER_0_17_55
*727 FILLER_0_17_57
*728 FILLER_0_17_69
*729 FILLER_0_17_81
*730 FILLER_0_17_93
*731 FILLER_0_18_109
*732 FILLER_0_18_121
*733 FILLER_0_18_133
*734 FILLER_0_18_139
*735 FILLER_0_18_141
*736 FILLER_0_18_15
*737 FILLER_0_18_153
*738 FILLER_0_18_165
*739 FILLER_0_18_177
*740 FILLER_0_18_189
*741 FILLER_0_18_195
*742 FILLER_0_18_197
*743 FILLER_0_18_209
*744 FILLER_0_18_221
*745 FILLER_0_18_233
*746 FILLER_0_18_245
*747 FILLER_0_18_251
*748 FILLER_0_18_253
*749 FILLER_0_18_265
*750 FILLER_0_18_27
*751 FILLER_0_18_277
*752 FILLER_0_18_289
*753 FILLER_0_18_29
*754 FILLER_0_18_3
*755 FILLER_0_18_301
*756 FILLER_0_18_307
*757 FILLER_0_18_309
*758 FILLER_0_18_321
*759 FILLER_0_18_333
*760 FILLER_0_18_41
*761 FILLER_0_18_53
*762 FILLER_0_18_65
*763 FILLER_0_18_77
*764 FILLER_0_18_83
*765 FILLER_0_18_85
*766 FILLER_0_18_97
*767 FILLER_0_19_105
*768 FILLER_0_19_111
*769 FILLER_0_19_113
*770 FILLER_0_19_125
*771 FILLER_0_19_137
*772 FILLER_0_19_149
*773 FILLER_0_19_15
*774 FILLER_0_19_161
*775 FILLER_0_19_167
*776 FILLER_0_19_169
*777 FILLER_0_19_181
*778 FILLER_0_19_193
*779 FILLER_0_19_205
*780 FILLER_0_19_217
*781 FILLER_0_19_223
*782 FILLER_0_19_225
*783 FILLER_0_19_237
*784 FILLER_0_19_249
*785 FILLER_0_19_261
*786 FILLER_0_19_27
*787 FILLER_0_19_273
*788 FILLER_0_19_279
*789 FILLER_0_19_281
*790 FILLER_0_19_293
*791 FILLER_0_19_3
*792 FILLER_0_19_305
*793 FILLER_0_19_317
*794 FILLER_0_19_329
*795 FILLER_0_19_39
*796 FILLER_0_19_51
*797 FILLER_0_19_55
*798 FILLER_0_19_57
*799 FILLER_0_19_69
*800 FILLER_0_19_81
*801 FILLER_0_19_93
*802 FILLER_0_1_105
*803 FILLER_0_1_111
*804 FILLER_0_1_113
*805 FILLER_0_1_125
*806 FILLER_0_1_137
*807 FILLER_0_1_149
*808 FILLER_0_1_15
*809 FILLER_0_1_161
*810 FILLER_0_1_167
*811 FILLER_0_1_169
*812 FILLER_0_1_181
*813 FILLER_0_1_193
*814 FILLER_0_1_205
*815 FILLER_0_1_217
*816 FILLER_0_1_223
*817 FILLER_0_1_225
*818 FILLER_0_1_237
*819 FILLER_0_1_249
*820 FILLER_0_1_261
*821 FILLER_0_1_27
*822 FILLER_0_1_273
*823 FILLER_0_1_279
*824 FILLER_0_1_281
*825 FILLER_0_1_293
*826 FILLER_0_1_3
*827 FILLER_0_1_305
*828 FILLER_0_1_317
*829 FILLER_0_1_329
*830 FILLER_0_1_39
*831 FILLER_0_1_51
*832 FILLER_0_1_55
*833 FILLER_0_1_57
*834 FILLER_0_1_69
*835 FILLER_0_1_81
*836 FILLER_0_1_93
*837 FILLER_0_20_109
*838 FILLER_0_20_121
*839 FILLER_0_20_133
*840 FILLER_0_20_139
*841 FILLER_0_20_141
*842 FILLER_0_20_15
*843 FILLER_0_20_153
*844 FILLER_0_20_165
*845 FILLER_0_20_177
*846 FILLER_0_20_189
*847 FILLER_0_20_195
*848 FILLER_0_20_197
*849 FILLER_0_20_209
*850 FILLER_0_20_221
*851 FILLER_0_20_233
*852 FILLER_0_20_245
*853 FILLER_0_20_251
*854 FILLER_0_20_253
*855 FILLER_0_20_265
*856 FILLER_0_20_27
*857 FILLER_0_20_277
*858 FILLER_0_20_289
*859 FILLER_0_20_29
*860 FILLER_0_20_3
*861 FILLER_0_20_301
*862 FILLER_0_20_307
*863 FILLER_0_20_309
*864 FILLER_0_20_321
*865 FILLER_0_20_333
*866 FILLER_0_20_41
*867 FILLER_0_20_53
*868 FILLER_0_20_65
*869 FILLER_0_20_77
*870 FILLER_0_20_83
*871 FILLER_0_20_85
*872 FILLER_0_20_97
*873 FILLER_0_21_105
*874 FILLER_0_21_111
*875 FILLER_0_21_113
*876 FILLER_0_21_125
*877 FILLER_0_21_131
*878 FILLER_0_21_15
*879 FILLER_0_21_155
*880 FILLER_0_21_167
*881 FILLER_0_21_169
*882 FILLER_0_21_181
*883 FILLER_0_21_193
*884 FILLER_0_21_205
*885 FILLER_0_21_217
*886 FILLER_0_21_223
*887 FILLER_0_21_225
*888 FILLER_0_21_237
*889 FILLER_0_21_249
*890 FILLER_0_21_261
*891 FILLER_0_21_268
*892 FILLER_0_21_27
*893 FILLER_0_21_287
*894 FILLER_0_21_299
*895 FILLER_0_21_3
*896 FILLER_0_21_311
*897 FILLER_0_21_323
*898 FILLER_0_21_39
*899 FILLER_0_21_51
*900 FILLER_0_21_55
*901 FILLER_0_21_57
*902 FILLER_0_21_69
*903 FILLER_0_21_81
*904 FILLER_0_21_93
*905 FILLER_0_22_106
*906 FILLER_0_22_118
*907 FILLER_0_22_130
*908 FILLER_0_22_138
*909 FILLER_0_22_141
*910 FILLER_0_22_15
*911 FILLER_0_22_153
*912 FILLER_0_22_195
*913 FILLER_0_22_197
*914 FILLER_0_22_204
*915 FILLER_0_22_212
*916 FILLER_0_22_238
*917 FILLER_0_22_250
*918 FILLER_0_22_253
*919 FILLER_0_22_27
*920 FILLER_0_22_272
*921 FILLER_0_22_276
*922 FILLER_0_22_289
*923 FILLER_0_22_29
*924 FILLER_0_22_3
*925 FILLER_0_22_301
*926 FILLER_0_22_307
*927 FILLER_0_22_309
*928 FILLER_0_22_321
*929 FILLER_0_22_333
*930 FILLER_0_22_41
*931 FILLER_0_22_53
*932 FILLER_0_22_65
*933 FILLER_0_22_77
*934 FILLER_0_22_83
*935 FILLER_0_23_101
*936 FILLER_0_23_109
*937 FILLER_0_23_144
*938 FILLER_0_23_15
*939 FILLER_0_23_164
*940 FILLER_0_23_169
*941 FILLER_0_23_195
*942 FILLER_0_23_219
*943 FILLER_0_23_223
*944 FILLER_0_23_225
*945 FILLER_0_23_237
*946 FILLER_0_23_249
*947 FILLER_0_23_255
*948 FILLER_0_23_265
*949 FILLER_0_23_27
*950 FILLER_0_23_270
*951 FILLER_0_23_278
*952 FILLER_0_23_284
*953 FILLER_0_23_296
*954 FILLER_0_23_3
*955 FILLER_0_23_308
*956 FILLER_0_23_320
*957 FILLER_0_23_332
*958 FILLER_0_23_39
*959 FILLER_0_23_51
*960 FILLER_0_23_55
*961 FILLER_0_23_57
*962 FILLER_0_23_73
*963 FILLER_0_23_77
*964 FILLER_0_23_89
*965 FILLER_0_24_100
*966 FILLER_0_24_128
*967 FILLER_0_24_141
*968 FILLER_0_24_15
*969 FILLER_0_24_153
*970 FILLER_0_24_188
*971 FILLER_0_24_197
*972 FILLER_0_24_221
*973 FILLER_0_24_250
*974 FILLER_0_24_253
*975 FILLER_0_24_267
*976 FILLER_0_24_27
*977 FILLER_0_24_273
*978 FILLER_0_24_29
*979 FILLER_0_24_292
*980 FILLER_0_24_3
*981 FILLER_0_24_304
*982 FILLER_0_24_316
*983 FILLER_0_24_320
*984 FILLER_0_24_328
*985 FILLER_0_24_334
*986 FILLER_0_24_41
*987 FILLER_0_24_73
*988 FILLER_0_24_81
*989 FILLER_0_24_90
*990 FILLER_0_24_94
*991 FILLER_0_25_121
*992 FILLER_0_25_133
*993 FILLER_0_25_15
*994 FILLER_0_25_155
*995 FILLER_0_25_164
*996 FILLER_0_25_169
*997 FILLER_0_25_181
*998 FILLER_0_25_207
*999 FILLER_0_25_223
*1000 FILLER_0_25_240
*1001 FILLER_0_25_259
*1002 FILLER_0_25_269
*1003 FILLER_0_25_27
*1004 FILLER_0_25_278
*1005 FILLER_0_25_3
*1006 FILLER_0_25_334
*1007 FILLER_0_25_39
*1008 FILLER_0_25_51
*1009 FILLER_0_25_55
*1010 FILLER_0_25_57
*1011 FILLER_0_25_65
*1012 FILLER_0_25_96
*1013 FILLER_0_26_101
*1014 FILLER_0_26_107
*1015 FILLER_0_26_138
*1016 FILLER_0_26_141
*1017 FILLER_0_26_15
*1018 FILLER_0_26_153
*1019 FILLER_0_26_168
*1020 FILLER_0_26_180
*1021 FILLER_0_26_192
*1022 FILLER_0_26_206
*1023 FILLER_0_26_25
*1024 FILLER_0_26_250
*1025 FILLER_0_26_285
*1026 FILLER_0_26_29
*1027 FILLER_0_26_3
*1028 FILLER_0_26_300
*1029 FILLER_0_26_309
*1030 FILLER_0_26_322
*1031 FILLER_0_26_333
*1032 FILLER_0_26_64
*1033 FILLER_0_26_72
*1034 FILLER_0_26_81
*1035 FILLER_0_26_89
*1036 FILLER_0_27_113
*1037 FILLER_0_27_120
*1038 FILLER_0_27_132
*1039 FILLER_0_27_140
*1040 FILLER_0_27_161
*1041 FILLER_0_27_166
*1042 FILLER_0_27_169
*1043 FILLER_0_27_181
*1044 FILLER_0_27_189
*1045 FILLER_0_27_204
*1046 FILLER_0_27_218
*1047 FILLER_0_27_225
*1048 FILLER_0_27_233
*1049 FILLER_0_27_245
*1050 FILLER_0_27_251
*1051 FILLER_0_27_257
*1052 FILLER_0_27_261
*1053 FILLER_0_27_266
*1054 FILLER_0_27_278
*1055 FILLER_0_27_288
*1056 FILLER_0_27_294
*1057 FILLER_0_27_302
*1058 FILLER_0_27_32
*1059 FILLER_0_27_329
*1060 FILLER_0_27_45
*1061 FILLER_0_27_57
*1062 FILLER_0_27_71
*1063 FILLER_0_28_110
*1064 FILLER_0_28_137
*1065 FILLER_0_28_153
*1066 FILLER_0_28_184
*1067 FILLER_0_28_197
*1068 FILLER_0_28_216
*1069 FILLER_0_28_224
*1070 FILLER_0_28_232
*1071 FILLER_0_28_240
*1072 FILLER_0_28_27
*1073 FILLER_0_28_274
*1074 FILLER_0_28_29
*1075 FILLER_0_28_3
*1076 FILLER_0_28_304
*1077 FILLER_0_28_320
*1078 FILLER_0_28_333
*1079 FILLER_0_28_46
*1080 FILLER_0_28_70
*1081 FILLER_0_28_82
*1082 FILLER_0_28_85
*1083 FILLER_0_28_93
*1084 FILLER_0_28_97
*1085 FILLER_0_29_108
*1086 FILLER_0_29_113
*1087 FILLER_0_29_125
*1088 FILLER_0_29_137
*1089 FILLER_0_29_15
*1090 FILLER_0_29_154
*1091 FILLER_0_29_166
*1092 FILLER_0_29_169
*1093 FILLER_0_29_200
*1094 FILLER_0_29_212
*1095 FILLER_0_29_220
*1096 FILLER_0_29_245
*1097 FILLER_0_29_252
*1098 FILLER_0_29_27
*1099 FILLER_0_29_276
*1100 FILLER_0_29_288
*1101 FILLER_0_29_3
*1102 FILLER_0_29_325
*1103 FILLER_0_29_33
*1104 FILLER_0_29_334
*1105 FILLER_0_29_38
*1106 FILLER_0_29_50
*1107 FILLER_0_29_57
*1108 FILLER_0_29_63
*1109 FILLER_0_29_84
*1110 FILLER_0_2_109
*1111 FILLER_0_2_121
*1112 FILLER_0_2_133
*1113 FILLER_0_2_139
*1114 FILLER_0_2_141
*1115 FILLER_0_2_15
*1116 FILLER_0_2_153
*1117 FILLER_0_2_165
*1118 FILLER_0_2_177
*1119 FILLER_0_2_189
*1120 FILLER_0_2_195
*1121 FILLER_0_2_197
*1122 FILLER_0_2_209
*1123 FILLER_0_2_221
*1124 FILLER_0_2_233
*1125 FILLER_0_2_245
*1126 FILLER_0_2_251
*1127 FILLER_0_2_253
*1128 FILLER_0_2_265
*1129 FILLER_0_2_27
*1130 FILLER_0_2_277
*1131 FILLER_0_2_289
*1132 FILLER_0_2_29
*1133 FILLER_0_2_3
*1134 FILLER_0_2_301
*1135 FILLER_0_2_307
*1136 FILLER_0_2_309
*1137 FILLER_0_2_321
*1138 FILLER_0_2_333
*1139 FILLER_0_2_41
*1140 FILLER_0_2_53
*1141 FILLER_0_2_65
*1142 FILLER_0_2_77
*1143 FILLER_0_2_83
*1144 FILLER_0_2_85
*1145 FILLER_0_2_97
*1146 FILLER_0_30_102
*1147 FILLER_0_30_114
*1148 FILLER_0_30_130
*1149 FILLER_0_30_136
*1150 FILLER_0_30_148
*1151 FILLER_0_30_156
*1152 FILLER_0_30_168
*1153 FILLER_0_30_189
*1154 FILLER_0_30_195
*1155 FILLER_0_30_197
*1156 FILLER_0_30_218
*1157 FILLER_0_30_23
*1158 FILLER_0_30_230
*1159 FILLER_0_30_238
*1160 FILLER_0_30_245
*1161 FILLER_0_30_251
*1162 FILLER_0_30_260
*1163 FILLER_0_30_27
*1164 FILLER_0_30_270
*1165 FILLER_0_30_294
*1166 FILLER_0_30_300
*1167 FILLER_0_30_313
*1168 FILLER_0_30_333
*1169 FILLER_0_30_37
*1170 FILLER_0_30_54
*1171 FILLER_0_30_70
*1172 FILLER_0_30_82
*1173 FILLER_0_30_85
*1174 FILLER_0_30_90
*1175 FILLER_0_31_120
*1176 FILLER_0_31_132
*1177 FILLER_0_31_144
*1178 FILLER_0_31_15
*1179 FILLER_0_31_164
*1180 FILLER_0_31_169
*1181 FILLER_0_31_186
*1182 FILLER_0_31_198
*1183 FILLER_0_31_204
*1184 FILLER_0_31_213
*1185 FILLER_0_31_221
*1186 FILLER_0_31_245
*1187 FILLER_0_31_253
*1188 FILLER_0_31_27
*1189 FILLER_0_31_279
*1190 FILLER_0_31_292
*1191 FILLER_0_31_3
*1192 FILLER_0_31_39
*1193 FILLER_0_31_43
*1194 FILLER_0_31_55
*1195 FILLER_0_31_57
*1196 FILLER_0_31_65
*1197 FILLER_0_31_69
*1198 FILLER_0_31_82
*1199 FILLER_0_32_107
*1200 FILLER_0_32_113
*1201 FILLER_0_32_121
*1202 FILLER_0_32_126
*1203 FILLER_0_32_138
*1204 FILLER_0_32_150
*1205 FILLER_0_32_164
*1206 FILLER_0_32_168
*1207 FILLER_0_32_175
*1208 FILLER_0_32_185
*1209 FILLER_0_32_193
*1210 FILLER_0_32_210
*1211 FILLER_0_32_214
*1212 FILLER_0_32_24
*1213 FILLER_0_32_249
*1214 FILLER_0_32_253
*1215 FILLER_0_32_279
*1216 FILLER_0_32_290
*1217 FILLER_0_32_3
*1218 FILLER_0_32_305
*1219 FILLER_0_32_37
*1220 FILLER_0_32_41
*1221 FILLER_0_32_62
*1222 FILLER_0_32_83
*1223 FILLER_0_32_85
*1224 FILLER_0_32_96
*1225 FILLER_0_33_110
*1226 FILLER_0_33_113
*1227 FILLER_0_33_139
*1228 FILLER_0_33_143
*1229 FILLER_0_33_15
*1230 FILLER_0_33_152
*1231 FILLER_0_33_159
*1232 FILLER_0_33_169
*1233 FILLER_0_33_173
*1234 FILLER_0_33_198
*1235 FILLER_0_33_212
*1236 FILLER_0_33_22
*1237 FILLER_0_33_246
*1238 FILLER_0_33_250
*1239 FILLER_0_33_269
*1240 FILLER_0_33_277
*1241 FILLER_0_33_28
*1242 FILLER_0_33_288
*1243 FILLER_0_33_292
*1244 FILLER_0_33_3
*1245 FILLER_0_33_325
*1246 FILLER_0_33_333
*1247 FILLER_0_33_45
*1248 FILLER_0_33_57
*1249 FILLER_0_33_63
*1250 FILLER_0_33_84
*1251 FILLER_0_34_101
*1252 FILLER_0_34_109
*1253 FILLER_0_34_119
*1254 FILLER_0_34_125
*1255 FILLER_0_34_141
*1256 FILLER_0_34_152
*1257 FILLER_0_34_174
*1258 FILLER_0_34_197
*1259 FILLER_0_34_208
*1260 FILLER_0_34_216
*1261 FILLER_0_34_226
*1262 FILLER_0_34_232
*1263 FILLER_0_34_253
*1264 FILLER_0_34_264
*1265 FILLER_0_34_276
*1266 FILLER_0_34_290
*1267 FILLER_0_34_296
*1268 FILLER_0_34_304
*1269 FILLER_0_34_334
*1270 FILLER_0_34_42
*1271 FILLER_0_34_49
*1272 FILLER_0_34_85
*1273 FILLER_0_34_89
*1274 FILLER_0_35_111
*1275 FILLER_0_35_15
*1276 FILLER_0_35_156
*1277 FILLER_0_35_167
*1278 FILLER_0_35_183
*1279 FILLER_0_35_218
*1280 FILLER_0_35_234
*1281 FILLER_0_35_258
*1282 FILLER_0_35_3
*1283 FILLER_0_35_41
*1284 FILLER_0_35_60
*1285 FILLER_0_35_64
*1286 FILLER_0_35_74
*1287 FILLER_0_36_106
*1288 FILLER_0_36_118
*1289 FILLER_0_36_130
*1290 FILLER_0_36_134
*1291 FILLER_0_36_149
*1292 FILLER_0_36_15
*1293 FILLER_0_36_153
*1294 FILLER_0_36_174
*1295 FILLER_0_36_189
*1296 FILLER_0_36_195
*1297 FILLER_0_36_197
*1298 FILLER_0_36_209
*1299 FILLER_0_36_215
*1300 FILLER_0_36_237
*1301 FILLER_0_36_250
*1302 FILLER_0_36_27
*1303 FILLER_0_36_29
*1304 FILLER_0_36_297
*1305 FILLER_0_36_3
*1306 FILLER_0_36_41
*1307 FILLER_0_36_67
*1308 FILLER_0_36_77
*1309 FILLER_0_36_83
*1310 FILLER_0_36_94
*1311 FILLER_0_37_101
*1312 FILLER_0_37_133
*1313 FILLER_0_37_149
*1314 FILLER_0_37_15
*1315 FILLER_0_37_155
*1316 FILLER_0_37_169
*1317 FILLER_0_37_177
*1318 FILLER_0_37_193
*1319 FILLER_0_37_211
*1320 FILLER_0_37_223
*1321 FILLER_0_37_225
*1322 FILLER_0_37_231
*1323 FILLER_0_37_251
*1324 FILLER_0_37_265
*1325 FILLER_0_37_27
*1326 FILLER_0_37_275
*1327 FILLER_0_37_279
*1328 FILLER_0_37_3
*1329 FILLER_0_37_319
*1330 FILLER_0_37_39
*1331 FILLER_0_37_51
*1332 FILLER_0_37_55
*1333 FILLER_0_37_57
*1334 FILLER_0_37_62
*1335 FILLER_0_37_66
*1336 FILLER_0_38_10
*1337 FILLER_0_38_102
*1338 FILLER_0_38_106
*1339 FILLER_0_38_110
*1340 FILLER_0_38_113
*1341 FILLER_0_38_118
*1342 FILLER_0_38_134
*1343 FILLER_0_38_14
*1344 FILLER_0_38_155
*1345 FILLER_0_38_167
*1346 FILLER_0_38_169
*1347 FILLER_0_38_18
*1348 FILLER_0_38_195
*1349 FILLER_0_38_197
*1350 FILLER_0_38_218
*1351 FILLER_0_38_22
*1352 FILLER_0_38_235
*1353 FILLER_0_38_251
*1354 FILLER_0_38_270
*1355 FILLER_0_38_32
*1356 FILLER_0_38_334
*1357 FILLER_0_38_38
*1358 FILLER_0_38_42
*1359 FILLER_0_38_46
*1360 FILLER_0_38_50
*1361 FILLER_0_38_54
*1362 FILLER_0_38_57
*1363 FILLER_0_38_6
*1364 FILLER_0_38_85
*1365 FILLER_0_38_97
*1366 FILLER_0_3_105
*1367 FILLER_0_3_111
*1368 FILLER_0_3_113
*1369 FILLER_0_3_125
*1370 FILLER_0_3_137
*1371 FILLER_0_3_149
*1372 FILLER_0_3_15
*1373 FILLER_0_3_161
*1374 FILLER_0_3_167
*1375 FILLER_0_3_169
*1376 FILLER_0_3_181
*1377 FILLER_0_3_193
*1378 FILLER_0_3_205
*1379 FILLER_0_3_217
*1380 FILLER_0_3_223
*1381 FILLER_0_3_225
*1382 FILLER_0_3_237
*1383 FILLER_0_3_249
*1384 FILLER_0_3_261
*1385 FILLER_0_3_27
*1386 FILLER_0_3_273
*1387 FILLER_0_3_279
*1388 FILLER_0_3_281
*1389 FILLER_0_3_293
*1390 FILLER_0_3_3
*1391 FILLER_0_3_305
*1392 FILLER_0_3_317
*1393 FILLER_0_3_329
*1394 FILLER_0_3_39
*1395 FILLER_0_3_51
*1396 FILLER_0_3_55
*1397 FILLER_0_3_57
*1398 FILLER_0_3_69
*1399 FILLER_0_3_81
*1400 FILLER_0_3_93
*1401 FILLER_0_4_109
*1402 FILLER_0_4_121
*1403 FILLER_0_4_133
*1404 FILLER_0_4_139
*1405 FILLER_0_4_141
*1406 FILLER_0_4_15
*1407 FILLER_0_4_153
*1408 FILLER_0_4_165
*1409 FILLER_0_4_177
*1410 FILLER_0_4_189
*1411 FILLER_0_4_195
*1412 FILLER_0_4_197
*1413 FILLER_0_4_209
*1414 FILLER_0_4_221
*1415 FILLER_0_4_233
*1416 FILLER_0_4_245
*1417 FILLER_0_4_251
*1418 FILLER_0_4_253
*1419 FILLER_0_4_265
*1420 FILLER_0_4_27
*1421 FILLER_0_4_277
*1422 FILLER_0_4_289
*1423 FILLER_0_4_29
*1424 FILLER_0_4_3
*1425 FILLER_0_4_301
*1426 FILLER_0_4_307
*1427 FILLER_0_4_309
*1428 FILLER_0_4_321
*1429 FILLER_0_4_333
*1430 FILLER_0_4_41
*1431 FILLER_0_4_53
*1432 FILLER_0_4_65
*1433 FILLER_0_4_77
*1434 FILLER_0_4_83
*1435 FILLER_0_4_85
*1436 FILLER_0_4_97
*1437 FILLER_0_5_105
*1438 FILLER_0_5_111
*1439 FILLER_0_5_113
*1440 FILLER_0_5_125
*1441 FILLER_0_5_137
*1442 FILLER_0_5_149
*1443 FILLER_0_5_15
*1444 FILLER_0_5_161
*1445 FILLER_0_5_167
*1446 FILLER_0_5_169
*1447 FILLER_0_5_181
*1448 FILLER_0_5_193
*1449 FILLER_0_5_205
*1450 FILLER_0_5_217
*1451 FILLER_0_5_223
*1452 FILLER_0_5_225
*1453 FILLER_0_5_237
*1454 FILLER_0_5_249
*1455 FILLER_0_5_261
*1456 FILLER_0_5_27
*1457 FILLER_0_5_273
*1458 FILLER_0_5_279
*1459 FILLER_0_5_281
*1460 FILLER_0_5_293
*1461 FILLER_0_5_3
*1462 FILLER_0_5_305
*1463 FILLER_0_5_317
*1464 FILLER_0_5_329
*1465 FILLER_0_5_39
*1466 FILLER_0_5_51
*1467 FILLER_0_5_55
*1468 FILLER_0_5_57
*1469 FILLER_0_5_69
*1470 FILLER_0_5_81
*1471 FILLER_0_5_93
*1472 FILLER_0_6_109
*1473 FILLER_0_6_121
*1474 FILLER_0_6_133
*1475 FILLER_0_6_139
*1476 FILLER_0_6_141
*1477 FILLER_0_6_15
*1478 FILLER_0_6_153
*1479 FILLER_0_6_165
*1480 FILLER_0_6_177
*1481 FILLER_0_6_189
*1482 FILLER_0_6_195
*1483 FILLER_0_6_197
*1484 FILLER_0_6_209
*1485 FILLER_0_6_221
*1486 FILLER_0_6_233
*1487 FILLER_0_6_245
*1488 FILLER_0_6_251
*1489 FILLER_0_6_253
*1490 FILLER_0_6_265
*1491 FILLER_0_6_27
*1492 FILLER_0_6_277
*1493 FILLER_0_6_289
*1494 FILLER_0_6_29
*1495 FILLER_0_6_3
*1496 FILLER_0_6_301
*1497 FILLER_0_6_307
*1498 FILLER_0_6_309
*1499 FILLER_0_6_321
*1500 FILLER_0_6_333
*1501 FILLER_0_6_41
*1502 FILLER_0_6_53
*1503 FILLER_0_6_65
*1504 FILLER_0_6_77
*1505 FILLER_0_6_83
*1506 FILLER_0_6_85
*1507 FILLER_0_6_97
*1508 FILLER_0_7_105
*1509 FILLER_0_7_111
*1510 FILLER_0_7_113
*1511 FILLER_0_7_125
*1512 FILLER_0_7_137
*1513 FILLER_0_7_149
*1514 FILLER_0_7_15
*1515 FILLER_0_7_161
*1516 FILLER_0_7_167