*SPEF "ieee 1481-1999"
*DESIGN "tt_um_hpretl_tt06_tempsens"
*DATE "12:31:03 Friday April 12, 2024"
*VENDOR "The OpenROAD Project"
*PROGRAM "OpenROAD"
*VERSION "0889970d1790a2617e69f253221b8bd7626e51dc"
*DESIGN_FLOW "NAME_SCOPE LOCAL" "PIN_CAP NONE"
*DIVIDER /
*DELIMITER :
*BUS_DELIMITER []
*T_UNIT 1 NS
*C_UNIT 1 PF
*R_UNIT 1 OHM
*L_UNIT 1 HENRY

*NAME_MAP
*3 clk
*4 ena
*5 rst_n
*6 ui_in[0]
*7 ui_in[1]
*8 ui_in[2]
*9 ui_in[3]
*10 ui_in[4]
*11 ui_in[5]
*12 ui_in[6]
*13 ui_in[7]
*14 uio_in[0]
*15 uio_in[1]
*16 uio_in[2]
*17 uio_in[3]
*18 uio_in[4]
*19 uio_in[5]
*20 uio_in[6]
*21 uio_in[7]
*22 net43
*23 net44
*24 net45
*25 net46
*26 net52
*27 net53
*28 net54
*29 net55
*30 net47
*31 net48
*32 net49
*33 net50
*34 uio_out[4]
*35 uio_out[5]
*36 uio_out[6]
*37 uio_out[7]
*38 uo_out[0]
*39 uo_out[1]
*40 uo_out[2]
*41 uo_out[3]
*42 uo_out[4]
*43 uo_out[5]
*44 uo_out[6]
*45 uo_out[7]
*46 _004_
*47 _005_
*48 _006_
*49 _007_
*50 _008_
*51 _009_
*52 _010_
*53 _011_
*54 _012_
*55 _013_
*56 _014_
*57 _015_
*58 _016_
*59 _017_
*60 _018_
*61 _019_
*62 _020_
*63 _021_
*64 _022_
*65 _023_
*66 _024_
*67 _025_
*68 _026_
*69 _027_
*70 _028_
*71 _029_
*72 _030_
*73 _031_
*74 _032_
*75 _033_
*76 _034_
*77 _035_
*78 _036_
*79 _037_
*80 _038_
*81 _039_
*82 _040_
*83 _041_
*84 _042_
*85 _043_
*86 _044_
*87 _045_
*88 _046_
*89 _047_
*90 _048_
*91 _049_
*92 _050_
*93 _051_
*94 _052_
*95 _053_
*96 _054_
*97 _055_
*98 _056_
*99 _057_
*100 _058_
*101 _059_
*102 _060_
*103 _061_
*104 _062_
*105 _063_
*106 _064_
*107 _065_
*108 _066_
*109 _067_
*110 _068_
*111 _069_
*112 _070_
*113 _071_
*114 _072_
*115 _073_
*116 _074_
*117 _075_
*118 _076_
*119 _077_
*120 _078_
*121 _079_
*122 _080_
*123 _081_
*124 _082_
*125 _083_
*126 _084_
*127 _085_
*128 _086_
*129 _087_
*130 _088_
*131 _089_
*132 _090_
*133 _091_
*134 _092_
*135 _093_
*136 _094_
*137 _095_
*138 _096_
*139 _097_
*140 _098_
*141 _099_
*142 _100_
*143 _101_
*144 _102_
*145 _103_
*146 _104_
*147 _105_
*148 _106_
*149 _107_
*150 _108_
*151 _109_
*152 _110_
*153 _111_
*154 _112_
*155 _113_
*156 _114_
*157 _115_
*158 _116_
*159 _117_
*160 _118_
*161 _119_
*162 _120_
*163 _121_
*164 _122_
*165 _123_
*166 _124_
*167 _125_
*168 _126_
*169 _127_
*170 _128_
*171 _129_
*172 _130_
*173 _131_
*174 _132_
*175 _133_
*176 _134_
*177 _135_
*178 _136_
*179 _137_
*180 _138_
*181 _139_
*182 _140_
*183 _141_
*184 _142_
*185 _143_
*186 _144_
*187 _145_
*188 _146_
*189 _147_
*190 _148_
*191 _149_
*192 _150_
*193 _151_
*194 _152_
*195 _153_
*196 _154_
*197 _155_
*198 _156_
*199 _157_
*200 _158_
*201 _159_
*202 _160_
*203 _161_
*204 _162_
*205 _163_
*206 _164_
*207 _165_
*208 _166_
*209 _167_
*210 _168_
*211 _169_
*212 _170_
*213 _171_
*214 _172_
*215 _173_
*216 _174_
*217 _175_
*218 _176_
*219 _177_
*220 _178_
*221 _179_
*222 _180_
*223 _181_
*224 _182_
*225 _183_
*226 _184_
*227 _185_
*228 _186_
*229 _187_
*230 _188_
*231 _189_
*232 _190_
*233 _191_
*234 _192_
*235 _193_
*236 _194_
*237 _195_
*238 _196_
*239 _197_
*240 _198_
*241 _199_
*242 _200_
*243 _201_
*244 _202_
*245 _203_
*246 _204_
*247 _205_
*248 _206_
*249 _207_
*250 _208_
*251 _209_
*252 _210_
*253 _211_
*254 _212_
*255 _213_
*256 _214_
*257 _215_
*258 _216_
*259 _217_
*260 _218_
*261 _219_
*262 _220_
*263 _221_
*264 _222_
*265 _223_
*266 _224_
*267 _225_
*268 clknet_0_clk
*269 clknet_2_0__leaf_clk
*270 clknet_2_1__leaf_clk
*271 clknet_2_2__leaf_clk
*272 clknet_2_3__leaf_clk
*273 net1
*274 net10
*275 net11
*276 net12
*277 net13
*278 net14
*279 net15
*280 net16
*281 net17
*282 net18
*283 net19
*284 net2
*285 net20
*286 net21
*287 net22
*288 net23
*289 net24
*290 net25
*291 net26
*292 net27
*293 net28
*294 net29
*295 net3
*296 net30
*297 net31
*298 net32
*299 net33
*300 net34
*301 net35
*302 net36
*303 net37
*304 net38
*305 net39
*306 net4
*307 net40
*308 net41
*309 net42
*310 net5
*311 net51
*312 net56
*313 net57
*314 net58
*315 net59
*316 net6
*317 net60
*318 net61
*319 net62
*320 net63
*321 net64
*322 net65
*323 net66
*324 net67
*325 net68
*326 net69
*327 net7
*328 net70
*329 net8
*330 net9
*331 res1_n
*332 res2_n
*333 ts\.o_res\[0\]
*334 ts\.o_res\[10\]
*335 ts\.o_res\[11\]
*336 ts\.o_res\[12\]
*337 ts\.o_res\[13\]
*338 ts\.o_res\[14\]
*339 ts\.o_res\[15\]
*340 ts\.o_res\[16\]
*341 ts\.o_res\[17\]
*342 ts\.o_res\[18\]
*343 ts\.o_res\[19\]
*344 ts\.o_res\[1\]
*345 ts\.o_res\[2\]
*346 ts\.o_res\[3\]
*347 ts\.o_res\[4\]
*348 ts\.o_res\[5\]
*349 ts\.o_res\[6\]
*350 ts\.o_res\[7\]
*351 ts\.o_res\[8\]
*352 ts\.o_res\[9\]
*353 ts\.ts_core\.dac\.parallel_cells\[0\]\.vdac_batch\.en_pupd
*354 ts\.ts_core\.dac\.parallel_cells\[0\]\.vdac_batch\.en_vref
*355 ts\.ts_core\.dac\.parallel_cells\[0\]\.vdac_batch\.npu_pd
*356 ts\.ts_core\.dac\.parallel_cells\[1\]\.vdac_batch\.en_pupd
*357 ts\.ts_core\.dac\.parallel_cells\[1\]\.vdac_batch\.en_vref
*358 ts\.ts_core\.dac\.parallel_cells\[1\]\.vdac_batch\.npu_pd
*359 ts\.ts_core\.dac\.parallel_cells\[2\]\.vdac_batch\.en_pupd
*360 ts\.ts_core\.dac\.parallel_cells\[2\]\.vdac_batch\.en_vref
*361 ts\.ts_core\.dac\.parallel_cells\[2\]\.vdac_batch\.npu_pd
*362 ts\.ts_core\.dac\.parallel_cells\[3\]\.vdac_batch\.en_pupd
*363 ts\.ts_core\.dac\.parallel_cells\[3\]\.vdac_batch\.en_vref
*364 ts\.ts_core\.dac\.parallel_cells\[3\]\.vdac_batch\.npu_pd
*365 ts\.ts_core\.dac\.parallel_cells\[4\]\.vdac_batch\.en_pupd
*366 ts\.ts_core\.dac\.parallel_cells\[4\]\.vdac_batch\.en_vref
*367 ts\.ts_core\.dac\.parallel_cells\[4\]\.vdac_batch\.npu_pd
*368 ts\.ts_core\.dac\.vdac_single\.en_pupd
*369 ts\.ts_core\.dac_vout_ana_
*370 ts\.ts_core\.dcdel_capnode_ana_
*371 ts\.ts_core\.dcdel_out_n
*372 ts\.ts_core\.dummy_ana_\[0\]
*373 ts\.ts_core\.dummy_ana_\[10\]
*374 ts\.ts_core\.dummy_ana_\[11\]
*375 ts\.ts_core\.dummy_ana_\[12\]
*376 ts\.ts_core\.dummy_ana_\[13\]
*377 ts\.ts_core\.dummy_ana_\[14\]
*378 ts\.ts_core\.dummy_ana_\[15\]
*379 ts\.ts_core\.dummy_ana_\[1\]
*380 ts\.ts_core\.dummy_ana_\[2\]
*381 ts\.ts_core\.dummy_ana_\[3\]
*382 ts\.ts_core\.dummy_ana_\[4\]
*383 ts\.ts_core\.dummy_ana_\[5\]
*384 ts\.ts_core\.dummy_ana_\[6\]
*385 ts\.ts_core\.dummy_ana_\[7\]
*386 ts\.ts_core\.dummy_ana_\[8\]
*387 ts\.ts_core\.dummy_ana_\[9\]
*388 ts\.ts_core\.i_precharge_n
*389 ts\.ts_core\.o_tempdelay
*390 ts\.ts_core\.tempdelay_async
*391 ts\.ts_core\.tempdelay_sync1
*392 ts\.ts_ctrl\.state\[0\]
*393 ts\.ts_ctrl\.state\[1\]
*394 ts\.ts_ctrl\.state\[2\]
*395 ts\.ts_ctrl\.temp_ctr\[0\]
*396 ts\.ts_ctrl\.temp_ctr\[10\]
*397 ts\.ts_ctrl\.temp_ctr\[11\]
*398 ts\.ts_ctrl\.temp_ctr\[12\]
*399 ts\.ts_ctrl\.temp_ctr\[13\]
*400 ts\.ts_ctrl\.temp_ctr\[14\]
*401 ts\.ts_ctrl\.temp_ctr\[15\]
*402 ts\.ts_ctrl\.temp_ctr\[16\]
*403 ts\.ts_ctrl\.temp_ctr\[17\]
*404 ts\.ts_ctrl\.temp_ctr\[18\]
*405 ts\.ts_ctrl\.temp_ctr\[19\]
*406 ts\.ts_ctrl\.temp_ctr\[1\]
*407 ts\.ts_ctrl\.temp_ctr\[2\]
*408 ts\.ts_ctrl\.temp_ctr\[3\]
*409 ts\.ts_ctrl\.temp_ctr\[4\]
*410 ts\.ts_ctrl\.temp_ctr\[5\]
*411 ts\.ts_ctrl\.temp_ctr\[6\]
*412 ts\.ts_ctrl\.temp_ctr\[7\]
*413 ts\.ts_ctrl\.temp_ctr\[8\]
*414 ts\.ts_ctrl\.temp_ctr\[9\]
*415 ANTENNA_1
*416 ANTENNA_10
*417 ANTENNA_2
*418 ANTENNA_3
*419 ANTENNA_4
*420 ANTENNA_5
*421 ANTENNA_6
*422 ANTENNA_7
*423 ANTENNA_8
*424 ANTENNA_9
*425 FILLER_0_0_109
*426 FILLER_0_0_113
*427 FILLER_0_0_125
*428 FILLER_0_0_137
*429 FILLER_0_0_141
*430 FILLER_0_0_15
*431 FILLER_0_0_153
*432 FILLER_0_0_165
*433 FILLER_0_0_169
*434 FILLER_0_0_181
*435 FILLER_0_0_193
*436 FILLER_0_0_197
*437 FILLER_0_0_209
*438 FILLER_0_0_221
*439 FILLER_0_0_225
*440 FILLER_0_0_237
*441 FILLER_0_0_249
*442 FILLER_0_0_253
*443 FILLER_0_0_265
*444 FILLER_0_0_27
*445 FILLER_0_0_277
*446 FILLER_0_0_281
*447 FILLER_0_0_29
*448 FILLER_0_0_293
*449 FILLER_0_0_3
*450 FILLER_0_0_305
*451 FILLER_0_0_309
*452 FILLER_0_0_321
*453 FILLER_0_0_333
*454 FILLER_0_0_41
*455 FILLER_0_0_53
*456 FILLER_0_0_57
*457 FILLER_0_0_69
*458 FILLER_0_0_81
*459 FILLER_0_0_85
*460 FILLER_0_0_97
*461 FILLER_0_10_109
*462 FILLER_0_10_121
*463 FILLER_0_10_133
*464 FILLER_0_10_139
*465 FILLER_0_10_141
*466 FILLER_0_10_15
*467 FILLER_0_10_153
*468 FILLER_0_10_165
*469 FILLER_0_10_177
*470 FILLER_0_10_189
*471 FILLER_0_10_195
*472 FILLER_0_10_197
*473 FILLER_0_10_209
*474 FILLER_0_10_221
*475 FILLER_0_10_233
*476 FILLER_0_10_245
*477 FILLER_0_10_251
*478 FILLER_0_10_253
*479 FILLER_0_10_265
*480 FILLER_0_10_27
*481 FILLER_0_10_277
*482 FILLER_0_10_289
*483 FILLER_0_10_29
*484 FILLER_0_10_3
*485 FILLER_0_10_301
*486 FILLER_0_10_307
*487 FILLER_0_10_309
*488 FILLER_0_10_321
*489 FILLER_0_10_333
*490 FILLER_0_10_41
*491 FILLER_0_10_53
*492 FILLER_0_10_65
*493 FILLER_0_10_77
*494 FILLER_0_10_83
*495 FILLER_0_10_85
*496 FILLER_0_10_97
*497 FILLER_0_11_105
*498 FILLER_0_11_111
*499 FILLER_0_11_113
*500 FILLER_0_11_125
*501 FILLER_0_11_137
*502 FILLER_0_11_149
*503 FILLER_0_11_15
*504 FILLER_0_11_161
*505 FILLER_0_11_167
*506 FILLER_0_11_169
*507 FILLER_0_11_181
*508 FILLER_0_11_193
*509 FILLER_0_11_205
*510 FILLER_0_11_217
*511 FILLER_0_11_223
*512 FILLER_0_11_225
*513 FILLER_0_11_237
*514 FILLER_0_11_249
*515 FILLER_0_11_261
*516 FILLER_0_11_27
*517 FILLER_0_11_273
*518 FILLER_0_11_279
*519 FILLER_0_11_281
*520 FILLER_0_11_293
*521 FILLER_0_11_3
*522 FILLER_0_11_305
*523 FILLER_0_11_317
*524 FILLER_0_11_329
*525 FILLER_0_11_39
*526 FILLER_0_11_51
*527 FILLER_0_11_55
*528 FILLER_0_11_57
*529 FILLER_0_11_69
*530 FILLER_0_11_81
*531 FILLER_0_11_93
*532 FILLER_0_12_109
*533 FILLER_0_12_121
*534 FILLER_0_12_133
*535 FILLER_0_12_139
*536 FILLER_0_12_141
*537 FILLER_0_12_15
*538 FILLER_0_12_153
*539 FILLER_0_12_165
*540 FILLER_0_12_177
*541 FILLER_0_12_189
*542 FILLER_0_12_195
*543 FILLER_0_12_197
*544 FILLER_0_12_209
*545 FILLER_0_12_221
*546 FILLER_0_12_233
*547 FILLER_0_12_245
*548 FILLER_0_12_251
*549 FILLER_0_12_253
*550 FILLER_0_12_265
*551 FILLER_0_12_27
*552 FILLER_0_12_277
*553 FILLER_0_12_289
*554 FILLER_0_12_29
*555 FILLER_0_12_3
*556 FILLER_0_12_301
*557 FILLER_0_12_307
*558 FILLER_0_12_309
*559 FILLER_0_12_321
*560 FILLER_0_12_333
*561 FILLER_0_12_41
*562 FILLER_0_12_53
*563 FILLER_0_12_65
*564 FILLER_0_12_77
*565 FILLER_0_12_83
*566 FILLER_0_12_85
*567 FILLER_0_12_97
*568 FILLER_0_13_105
*569 FILLER_0_13_111
*570 FILLER_0_13_113
*571 FILLER_0_13_125
*572 FILLER_0_13_137
*573 FILLER_0_13_149
*574 FILLER_0_13_15
*575 FILLER_0_13_161
*576 FILLER_0_13_167
*577 FILLER_0_13_169
*578 FILLER_0_13_181
*579 FILLER_0_13_193
*580 FILLER_0_13_205
*581 FILLER_0_13_217
*582 FILLER_0_13_223
*583 FILLER_0_13_225
*584 FILLER_0_13_237
*585 FILLER_0_13_249
*586 FILLER_0_13_261
*587 FILLER_0_13_27
*588 FILLER_0_13_273
*589 FILLER_0_13_279
*590 FILLER_0_13_281
*591 FILLER_0_13_293
*592 FILLER_0_13_3
*593 FILLER_0_13_305
*594 FILLER_0_13_317
*595 FILLER_0_13_329
*596 FILLER_0_13_39
*597 FILLER_0_13_51
*598 FILLER_0_13_55
*599 FILLER_0_13_57
*600 FILLER_0_13_69
*601 FILLER_0_13_81
*602 FILLER_0_13_93
*603 FILLER_0_14_109
*604 FILLER_0_14_121
*605 FILLER_0_14_133
*606 FILLER_0_14_139
*607 FILLER_0_14_141
*608 FILLER_0_14_15
*609 FILLER_0_14_153
*610 FILLER_0_14_165
*611 FILLER_0_14_177
*612 FILLER_0_14_189
*613 FILLER_0_14_195
*614 FILLER_0_14_197
*615 FILLER_0_14_209
*616 FILLER_0_14_221
*617 FILLER_0_14_233
*618 FILLER_0_14_245
*619 FILLER_0_14_251
*620 FILLER_0_14_253
*621 FILLER_0_14_265
*622 FILLER_0_14_27
*623 FILLER_0_14_277
*624 FILLER_0_14_289
*625 FILLER_0_14_29
*626 FILLER_0_14_3
*627 FILLER_0_14_301
*628 FILLER_0_14_307
*629 FILLER_0_14_309
*630 FILLER_0_14_321
*631 FILLER_0_14_333
*632 FILLER_0_14_41
*633 FILLER_0_14_53
*634 FILLER_0_14_65
*635 FILLER_0_14_77
*636 FILLER_0_14_83
*637 FILLER_0_14_85
*638 FILLER_0_14_97
*639 FILLER_0_15_105
*640 FILLER_0_15_111
*641 FILLER_0_15_113
*642 FILLER_0_15_125
*643 FILLER_0_15_137
*644 FILLER_0_15_149
*645 FILLER_0_15_15
*646 FILLER_0_15_161
*647 FILLER_0_15_167
*648 FILLER_0_15_169
*649 FILLER_0_15_181
*650 FILLER_0_15_193
*651 FILLER_0_15_205
*652 FILLER_0_15_217
*653 FILLER_0_15_223
*654 FILLER_0_15_225
*655 FILLER_0_15_237
*656 FILLER_0_15_249
*657 FILLER_0_15_261
*658 FILLER_0_15_27
*659 FILLER_0_15_273
*660 FILLER_0_15_279
*661 FILLER_0_15_281
*662 FILLER_0_15_293
*663 FILLER_0_15_3
*664 FILLER_0_15_305
*665 FILLER_0_15_317
*666 FILLER_0_15_329
*667 FILLER_0_15_39
*668 FILLER_0_15_51
*669 FILLER_0_15_55
*670 FILLER_0_15_57
*671 FILLER_0_15_69
*672 FILLER_0_15_81
*673 FILLER_0_15_93
*674 FILLER_0_16_109
*675 FILLER_0_16_121
*676 FILLER_0_16_133
*677 FILLER_0_16_139
*678 FILLER_0_16_141
*679 FILLER_0_16_15
*680 FILLER_0_16_153
*681 FILLER_0_16_165
*682 FILLER_0_16_177
*683 FILLER_0_16_189
*684 FILLER_0_16_195
*685 FILLER_0_16_197
*686 FILLER_0_16_209
*687 FILLER_0_16_221
*688 FILLER_0_16_233
*689 FILLER_0_16_245
*690 FILLER_0_16_251
*691 FILLER_0_16_253
*692 FILLER_0_16_265
*693 FILLER_0_16_27
*694 FILLER_0_16_277
*695 FILLER_0_16_289
*696 FILLER_0_16_29
*697 FILLER_0_16_3
*698 FILLER_0_16_301
*699 FILLER_0_16_307
*700 FILLER_0_16_309
*701 FILLER_0_16_321
*702 FILLER_0_16_333
*703 FILLER_0_16_41
*704 FILLER_0_16_53
*705 FILLER_0_16_65
*706 FILLER_0_16_77
*707 FILLER_0_16_83
*708 FILLER_0_16_85
*709 FILLER_0_16_97
*710 FILLER_0_17_105
*711 FILLER_0_17_111
*712 FILLER_0_17_113
*713 FILLER_0_17_125
*714 FILLER_0_17_137
*715 FILLER_0_17_149
*716 FILLER_0_17_15
*717 FILLER_0_17_161
*718 FILLER_0_17_167
*719 FILLER_0_17_169
*720 FILLER_0_17_181
*721 FILLER_0_17_193
*722 FILLER_0_17_205
*723 FILLER_0_17_217
*724 FILLER_0_17_223
*725 FILLER_0_17_225
*726 FILLER_0_17_237
*727 FILLER_0_17_249
*728 FILLER_0_17_261
*729 FILLER_0_17_27
*730 FILLER_0_17_273
*731 FILLER_0_17_279
*732 FILLER_0_17_281
*733 FILLER_0_17_293
*734 FILLER_0_17_3
*735 FILLER_0_17_305
*736 FILLER_0_17_317
*737 FILLER_0_17_329
*738 FILLER_0_17_39
*739 FILLER_0_17_51
*740 FILLER_0_17_55
*741 FILLER_0_17_57
*742 FILLER_0_17_69
*743 FILLER_0_17_81
*744 FILLER_0_17_93
*745 FILLER_0_18_109
*746 FILLER_0_18_121
*747 FILLER_0_18_133
*748 FILLER_0_18_139
*749 FILLER_0_18_141
*750 FILLER_0_18_15
*751 FILLER_0_18_153
*752 FILLER_0_18_165
*753 FILLER_0_18_177
*754 FILLER_0_18_189
*755 FILLER_0_18_195
*756 FILLER_0_18_197
*757 FILLER_0_18_209
*758 FILLER_0_18_221
*759 FILLER_0_18_233
*760 FILLER_0_18_245
*761 FILLER_0_18_251
*762 FILLER_0_18_253
*763 FILLER_0_18_265
*764 FILLER_0_18_27
*765 FILLER_0_18_277
*766 FILLER_0_18_289
*767 FILLER_0_18_29
*768 FILLER_0_18_3
*769 FILLER_0_18_301
*770 FILLER_0_18_307
*771 FILLER_0_18_309
*772 FILLER_0_18_321
*773 FILLER_0_18_333
*774 FILLER_0_18_41
*775 FILLER_0_18_53
*776 FILLER_0_18_65
*777 FILLER_0_18_77
*778 FILLER_0_18_83
*779 FILLER_0_18_85
*780 FILLER_0_18_97
*781 FILLER_0_19_105
*782 FILLER_0_19_111
*783 FILLER_0_19_113
*784 FILLER_0_19_125
*785 FILLER_0_19_137
*786 FILLER_0_19_149
*787 FILLER_0_19_15
*788 FILLER_0_19_161
*789 FILLER_0_19_167
*790 FILLER_0_19_169
*791 FILLER_0_19_181
*792 FILLER_0_19_193
*793 FILLER_0_19_205
*794 FILLER_0_19_217
*795 FILLER_0_19_223
*796 FILLER_0_19_225
*797 FILLER_0_19_237
*798 FILLER_0_19_249
*799 FILLER_0_19_261
*800 FILLER_0_19_27
*801 FILLER_0_19_273
*802 FILLER_0_19_279
*803 FILLER_0_19_281
*804 FILLER_0_19_293
*805 FILLER_0_19_3
*806 FILLER_0_19_305
*807 FILLER_0_19_317
*808 FILLER_0_19_329
*809 FILLER_0_19_39
*810 FILLER_0_19_51
*811 FILLER_0_19_55
*812 FILLER_0_19_57
*813 FILLER_0_19_69
*814 FILLER_0_19_81
*815 FILLER_0_19_93
*816 FILLER_0_1_105
*817 FILLER_0_1_111
*818 FILLER_0_1_113
*819 FILLER_0_1_125
*820 FILLER_0_1_137
*821 FILLER_0_1_149
*822 FILLER_0_1_15
*823 FILLER_0_1_161
*824 FILLER_0_1_167
*825 FILLER_0_1_169
*826 FILLER_0_1_181
*827 FILLER_0_1_193
*828 FILLER_0_1_205
*829 FILLER_0_1_217
*830 FILLER_0_1_223
*831 FILLER_0_1_225
*832 FILLER_0_1_237
*833 FILLER_0_1_249
*834 FILLER_0_1_261
*835 FILLER_0_1_27
*836 FILLER_0_1_273
*837 FILLER_0_1_279
*838 FILLER_0_1_281
*839 FILLER_0_1_293
*840 FILLER_0_1_3
*841 FILLER_0_1_305
*842 FILLER_0_1_317
*843 FILLER_0_1_329
*844 FILLER_0_1_39
*845 FILLER_0_1_51
*846 FILLER_0_1_55
*847 FILLER_0_1_57
*848 FILLER_0_1_69
*849 FILLER_0_1_81
*850 FILLER_0_1_93
*851 FILLER_0_20_129
*852 FILLER_0_20_137
*853 FILLER_0_20_141
*854 FILLER_0_20_15
*855 FILLER_0_20_153
*856 FILLER_0_20_165
*857 FILLER_0_20_177
*858 FILLER_0_20_189
*859 FILLER_0_20_195
*860 FILLER_0_20_197
*861 FILLER_0_20_209
*862 FILLER_0_20_221
*863 FILLER_0_20_233
*864 FILLER_0_20_245
*865 FILLER_0_20_251
*866 FILLER_0_20_253
*867 FILLER_0_20_265
*868 FILLER_0_20_27
*869 FILLER_0_20_277
*870 FILLER_0_20_289
*871 FILLER_0_20_29
*872 FILLER_0_20_3
*873 FILLER_0_20_301
*874 FILLER_0_20_307
*875 FILLER_0_20_309
*876 FILLER_0_20_321
*877 FILLER_0_20_329
*878 FILLER_0_20_334
*879 FILLER_0_20_41
*880 FILLER_0_20_53
*881 FILLER_0_20_65
*882 FILLER_0_20_77
*883 FILLER_0_20_83
*884 FILLER_0_20_85
*885 FILLER_0_20_97
*886 FILLER_0_21_106
*887 FILLER_0_21_113
*888 FILLER_0_21_125
*889 FILLER_0_21_131
*890 FILLER_0_21_15
*891 FILLER_0_21_152
*892 FILLER_0_21_164
*893 FILLER_0_21_169
*894 FILLER_0_21_181
*895 FILLER_0_21_193
*896 FILLER_0_21_205
*897 FILLER_0_21_217
*898 FILLER_0_21_223
*899 FILLER_0_21_225
*900 FILLER_0_21_237
*901 FILLER_0_21_249
*902 FILLER_0_21_261
*903 FILLER_0_21_27
*904 FILLER_0_21_273
*905 FILLER_0_21_281
*906 FILLER_0_21_293
*907 FILLER_0_21_3
*908 FILLER_0_21_305
*909 FILLER_0_21_317
*910 FILLER_0_21_39
*911 FILLER_0_21_51
*912 FILLER_0_21_55
*913 FILLER_0_21_57
*914 FILLER_0_21_69
*915 FILLER_0_21_75
*916 FILLER_0_21_94
*917 FILLER_0_22_105
*918 FILLER_0_22_113
*919 FILLER_0_22_119
*920 FILLER_0_22_135
*921 FILLER_0_22_139
*922 FILLER_0_22_141
*923 FILLER_0_22_15
*924 FILLER_0_22_150
*925 FILLER_0_22_195
*926 FILLER_0_22_217
*927 FILLER_0_22_229
*928 FILLER_0_22_241
*929 FILLER_0_22_249
*930 FILLER_0_22_253
*931 FILLER_0_22_260
*932 FILLER_0_22_268
*933 FILLER_0_22_27
*934 FILLER_0_22_272
*935 FILLER_0_22_29
*936 FILLER_0_22_3
*937 FILLER_0_22_301
*938 FILLER_0_22_307
*939 FILLER_0_22_309
*940 FILLER_0_22_313
*941 FILLER_0_22_37
*942 FILLER_0_22_49
*943 FILLER_0_22_78
*944 FILLER_0_23_104
*945 FILLER_0_23_118
*946 FILLER_0_23_126
*947 FILLER_0_23_149
*948 FILLER_0_23_15
*949 FILLER_0_23_155
*950 FILLER_0_23_159
*951 FILLER_0_23_167
*952 FILLER_0_23_169
*953 FILLER_0_23_188
*954 FILLER_0_23_200
*955 FILLER_0_23_212
*956 FILLER_0_23_245
*957 FILLER_0_23_269
*958 FILLER_0_23_27
*959 FILLER_0_23_295
*960 FILLER_0_23_3
*961 FILLER_0_23_305
*962 FILLER_0_23_52
*963 FILLER_0_23_57
*964 FILLER_0_23_69
*965 FILLER_0_23_75
*966 FILLER_0_23_87
*967 FILLER_0_23_94
*968 FILLER_0_24_104
*969 FILLER_0_24_108
*970 FILLER_0_24_116
*971 FILLER_0_24_127
*972 FILLER_0_24_137
*973 FILLER_0_24_141
*974 FILLER_0_24_15
*975 FILLER_0_24_161
*976 FILLER_0_24_181
*977 FILLER_0_24_193
*978 FILLER_0_24_217
*979 FILLER_0_24_229
*980 FILLER_0_24_233
*981 FILLER_0_24_238
*982 FILLER_0_24_27
*983 FILLER_0_24_280
*984 FILLER_0_24_29
*985 FILLER_0_24_3
*986 FILLER_0_24_36
*987 FILLER_0_24_48
*988 FILLER_0_24_72
*989 FILLER_0_24_93
*990 FILLER_0_25_104
*991 FILLER_0_25_117
*992 FILLER_0_25_129
*993 FILLER_0_25_141
*994 FILLER_0_25_15
*995 FILLER_0_25_153
*996 FILLER_0_25_164
*997 FILLER_0_25_169
*998 FILLER_0_25_180
*999 FILLER_0_25_192
*1000 FILLER_0_25_205
*1001 FILLER_0_25_211
*1002 FILLER_0_25_220
*1003 FILLER_0_25_23
*1004 FILLER_0_25_248
*1005 FILLER_0_25_252
*1006 FILLER_0_25_266
*1007 FILLER_0_25_281
*1008 FILLER_0_25_286
*1009 FILLER_0_25_290
*1010 FILLER_0_25_3
*1011 FILLER_0_25_57
*1012 FILLER_0_25_69
*1013 FILLER_0_25_81
*1014 FILLER_0_25_87
*1015 FILLER_0_25_92
*1016 FILLER_0_26_117
*1017 FILLER_0_26_138
*1018 FILLER_0_26_161
*1019 FILLER_0_26_169
*1020 FILLER_0_26_180
*1021 FILLER_0_26_192
*1022 FILLER_0_26_218
*1023 FILLER_0_26_233
*1024 FILLER_0_26_250
*1025 FILLER_0_26_258
*1026 FILLER_0_26_27
*1027 FILLER_0_26_29
*1028 FILLER_0_26_3
*1029 FILLER_0_26_306
*1030 FILLER_0_26_36
*1031 FILLER_0_26_48
*1032 FILLER_0_26_56
*1033 FILLER_0_26_79
*1034 FILLER_0_26_83
*1035 FILLER_0_26_85
*1036 FILLER_0_27_113
*1037 FILLER_0_27_118
*1038 FILLER_0_27_13
*1039 FILLER_0_27_130
*1040 FILLER_0_27_142
*1041 FILLER_0_27_146
*1042 FILLER_0_27_158
*1043 FILLER_0_27_169
*1044 FILLER_0_27_191
*1045 FILLER_0_27_199
*1046 FILLER_0_27_231
*1047 FILLER_0_27_25
*1048 FILLER_0_27_29
*1049 FILLER_0_27_3
*1050 FILLER_0_27_57
*1051 FILLER_0_27_61
*1052 FILLER_0_27_78
*1053 FILLER_0_27_86
*1054 FILLER_0_27_9
*1055 FILLER_0_28_120
*1056 FILLER_0_28_124
*1057 FILLER_0_28_134
*1058 FILLER_0_28_141
*1059 FILLER_0_28_162
*1060 FILLER_0_28_166
*1061 FILLER_0_28_202
*1062 FILLER_0_28_229
*1063 FILLER_0_28_26
*1064 FILLER_0_28_261
*1065 FILLER_0_28_298
*1066 FILLER_0_28_47
*1067 FILLER_0_28_60
*1068 FILLER_0_28_72
*1069 FILLER_0_28_76
*1070 FILLER_0_28_98
*1071 FILLER_0_29_110
*1072 FILLER_0_29_113
*1073 FILLER_0_29_121
*1074 FILLER_0_29_142
*1075 FILLER_0_29_15
*1076 FILLER_0_29_169
*1077 FILLER_0_29_174
*1078 FILLER_0_29_196
*1079 FILLER_0_29_27
*1080 FILLER_0_29_3
*1081 FILLER_0_29_41
*1082 FILLER_0_29_47
*1083 FILLER_0_29_57
*1084 FILLER_0_29_63
*1085 FILLER_0_29_95
*1086 FILLER_0_2_109
*1087 FILLER_0_2_121
*1088 FILLER_0_2_133
*1089 FILLER_0_2_139
*1090 FILLER_0_2_141
*1091 FILLER_0_2_15
*1092 FILLER_0_2_153
*1093 FILLER_0_2_165
*1094 FILLER_0_2_177
*1095 FILLER_0_2_189
*1096 FILLER_0_2_195
*1097 FILLER_0_2_197
*1098 FILLER_0_2_209
*1099 FILLER_0_2_221
*1100 FILLER_0_2_233
*1101 FILLER_0_2_245
*1102 FILLER_0_2_251
*1103 FILLER_0_2_253
*1104 FILLER_0_2_265
*1105 FILLER_0_2_27
*1106 FILLER_0_2_277
*1107 FILLER_0_2_289
*1108 FILLER_0_2_29
*1109 FILLER_0_2_3
*1110 FILLER_0_2_301
*1111 FILLER_0_2_307
*1112 FILLER_0_2_309
*1113 FILLER_0_2_321
*1114 FILLER_0_2_333
*1115 FILLER_0_2_41
*1116 FILLER_0_2_53
*1117 FILLER_0_2_65
*1118 FILLER_0_2_77
*1119 FILLER_0_2_83
*1120 FILLER_0_2_85
*1121 FILLER_0_2_97
*1122 FILLER_0_30_112
*1123 FILLER_0_30_118
*1124 FILLER_0_30_123
*1125 FILLER_0_30_128
*1126 FILLER_0_30_160
*1127 FILLER_0_30_184
*1128 FILLER_0_30_25
*1129 FILLER_0_30_263
*1130 FILLER_0_30_29
*1131 FILLER_0_30_3
*1132 FILLER_0_30_307
*1133 FILLER_0_30_333
*1134 FILLER_0_30_41
*1135 FILLER_0_30_73
*1136 FILLER_0_31_111
*1137 FILLER_0_31_113
*1138 FILLER_0_31_132
*1139 FILLER_0_31_146
*1140 FILLER_0_31_167
*1141 FILLER_0_31_169
*1142 FILLER_0_31_187
*1143 FILLER_0_31_200
*1144 FILLER_0_31_210
*1145 FILLER_0_31_225
*1146 FILLER_0_31_24
*1147 FILLER_0_31_3
*1148 FILLER_0_31_48
*1149 FILLER_0_31_57
*1150 FILLER_0_31_78
*1151 FILLER_0_32_104
*1152 FILLER_0_32_116
*1153 FILLER_0_32_12
*1154 FILLER_0_32_152
*1155 FILLER_0_32_166
*1156 FILLER_0_32_18
*1157 FILLER_0_32_201
*1158 FILLER_0_32_261
*1159 FILLER_0_32_29
*1160 FILLER_0_32_3
*1161 FILLER_0_32_54
*1162 FILLER_0_32_78
*1163 FILLER_0_32_85
*1164 FILLER_0_32_89
*1165 FILLER_0_33_111
*1166 FILLER_0_33_113
*1167 FILLER_0_33_13
*1168 FILLER_0_33_160
*1169 FILLER_0_33_169
*1170 FILLER_0_33_17
*1171 FILLER_0_33_27
*1172 FILLER_0_33_3
*1173 FILLER_0_33_333
*1174 FILLER_0_33_39
*1175 FILLER_0_33_50
*1176 FILLER_0_33_57
*1177 FILLER_0_33_69
*1178 FILLER_0_33_9
*1179 FILLER_0_33_99
*1180 FILLER_0_34_113
*1181 FILLER_0_34_135
*1182 FILLER_0_34_155
*1183 FILLER_0_34_197
*1184 FILLER_0_34_25
*1185 FILLER_0_34_261
*1186 FILLER_0_34_29
*1187 FILLER_0_34_3
*1188 FILLER_0_34_307
*1189 FILLER_0_34_35
*1190 FILLER_0_34_56
*1191 FILLER_0_34_69
*1192 FILLER_0_34_78
*1193 FILLER_0_34_85
*1194 FILLER_0_35_110
*1195 FILLER_0_35_113
*1196 FILLER_0_35_129
*1197 FILLER_0_35_133
*1198 FILLER_0_35_15
*1199 FILLER_0_35_160
*1200 FILLER_0_35_169
*1201 FILLER_0_35_177
*1202 FILLER_0_35_225
*1203 FILLER_0_35_23
*1204 FILLER_0_35_3
*1205 FILLER_0_35_36
*1206 FILLER_0_35_42
*1207 FILLER_0_35_54
*1208 FILLER_0_35_60
*1209 FILLER_0_35_68
*1210 FILLER_0_35_80
*1211 FILLER_0_35_93
*1212 FILLER_0_36_101
*1213 FILLER_0_36_110
*1214 FILLER_0_36_116
*1215 FILLER_0_36_133
*1216 FILLER_0_36_141
*1217 FILLER_0_36_15
*1218 FILLER_0_36_197
*1219 FILLER_0_36_27
*1220 FILLER_0_36_3
*1221 FILLER_0_36_306
*1222 FILLER_0_36_333
*1223 FILLER_0_36_69
*1224 FILLER_0_36_73
*1225 FILLER_0_36_83
*1226 FILLER_0_36_88
*1227 FILLER_0_36_96
*1228 FILLER_0_37_15
*1229 FILLER_0_37_155
*1230 FILLER_0_37_176
*1231 FILLER_0_37_191
*1232 FILLER_0_37_210
*1233 FILLER_0_37_216
*1234 FILLER_0_37_225
*1235 FILLER_0_37_229
*1236 FILLER_0_37_233
*1237 FILLER_0_37_27
*1238 FILLER_0_37_270
*1239 FILLER_0_37_3
*1240 FILLER_0_37_39
*1241 FILLER_0_37_51
*1242 FILLER_0_37_55
*1243 FILLER_0_37_57
*1244 FILLER_0_37_79
*1245 FILLER_0_37_91
*1246 FILLER_0_38_10
*1247 FILLER_0_38_105
*1248 FILLER_0_38_125
*1249 FILLER_0_38_14
*1250 FILLER_0_38_141
*1251 FILLER_0_38_18
*1252 FILLER_0_38_183
*1253 FILLER_0_38_187
*1254 FILLER_0_38_191
*1255 FILLER_0_38_22
*1256 FILLER_0_38_251
*1257 FILLER_0_38_271
*1258 FILLER_0_38_306
*1259 FILLER_0_38_32
*1260 FILLER_0_38_38
*1261 FILLER_0_38_42
*1262 FILLER_0_38_46
*1263 FILLER_0_38_50
*1264 FILLER_0_38_54
*1265 FILLER_0_38_57
*1266 FILLER_0_38_6
*1267 FILLER_0_38_62
*1268 FILLER_0_38_67
*1269 FILLER_0_38_71
*1270 FILLER_0_38_76
*1271 FILLER_0_3_105
*1272 FILLER_0_3_111
*1273 FILLER_0_3_113
*1274 FILLER_0_3_125
*1275 FILLER_0_3_137
*1276 FILLER_0_3_149
*1277 FILLER_0_3_15
*1278 FILLER_0_3_161
*1279 FILLER_0_3_167
*1280 FILLER_0_3_169
*1281 FILLER_0_3_181
*1282 FILLER_0_3_193
*1283 FILLER_0_3_205
*1284 FILLER_0_3_217
*1285 FILLER_0_3_223
*1286 FILLER_0_3_225
*1287 FILLER_0_3_237
*1288 FILLER_0_3_249
*1289 FILLER_0_3_261
*1290 FILLER_0_3_27
*1291 FILLER_0_3_273
*1292 FILLER_0_3_279
*1293 FILLER_0_3_281
*1294 FILLER_0_3_293
*1295 FILLER_0_3_3
*1296 FILLER_0_3_305
*1297 FILLER_0_3_317
*1298 FILLER_0_3_329
*1299 FILLER_0_3_39
*1300 FILLER_0_3_51
*1301 FILLER_0_3_55
*1302 FILLER_0_3_57
*1303 FILLER_0_3_69
*1304 FILLER_0_3_81
*1305 FILLER_0_3_93
*1306 FILLER_0_4_109
*1307 FILLER_0_4_121
*1308 FILLER_0_4_133
*1309 FILLER_0_4_139
*1310 FILLER_0_4_141
*1311 FILLER_0_4_15
*1312 FILLER_0_4_153
*1313 FILLER_0_4_165
*1314 FILLER_0_4_177
*1315 FILLER_0_4_189
*1316 FILLER_0_4_195
*1317 FILLER_0_4_197
*1318 FILLER_0_4_209
*1319 FILLER_0_4_221
*1320 FILLER_0_4_233
*1321 FILLER_0_4_245
*1322 FILLER_0_4_251
*1323 FILLER_0_4_253
*1324 FILLER_0_4_265
*1325 FILLER_0_4_27
*1326 FILLER_0_4_277
*1327 FILLER_0_4_289
*1328 FILLER_0_4_29
*1329 FILLER_0_4_3
*1330 FILLER_0_4_301
*1331 FILLER_0_4_307
*1332 FILLER_0_4_309
*1333 FILLER_0_4_321
*1334 FILLER_0_4_333
*1335 FILLER_0_4_41
*1336 FILLER_0_4_53
*1337 FILLER_0_4_65
*1338 FILLER_0_4_77
*1339 FILLER_0_4_83
*1340 FILLER_0_4_85
*1341 FILLER_0_4_97
*1342 FILLER_0_5_105
*1343 FILLER_0_5_111
*1344 FILLER_0_5_113
*1345 FILLER_0_5_125
*1346 FILLER_0_5_137
*1347 FILLER_0_5_149
*1348 FILLER_0_5_15
*1349 FILLER_0_5_161
*1350 FILLER_0_5_167
*1351 FILLER_0_5_169
*1352 FILLER_0_5_181
*1353 FILLER_0_5_193
*1354 FILLER_0_5_205
*1355 FILLER_0_5_217
*1356 FILLER_0_5_223
*1357 FILLER_0_5_225
*1358 FILLER_0_5_237
*1359 FILLER_0_5_249
*1360 FILLER_0_5_261
*1361 FILLER_0_5_27
*1362 FILLER_0_5_273
*1363 FILLER_0_5_279
*1364 FILLER_0_5_281
*1365 FILLER_0_5_293
*1366 FILLER_0_5_3
*1367 FILLER_0_5_305
*1368 FILLER_0_5_317
*1369 FILLER_0_5_329
*1370 FILLER_0_5_39
*1371 FILLER_0_5_51
*1372 FILLER_0_5_55
*1373 FILLER_0_5_57
*1374 FILLER_0_5_69
*1375 FILLER_0_5_81
*1376 FILLER_0_5_93
*1377 FILLER_0_6_109
*1378 FILLER_0_6_121
*1379 FILLER_0_6_133
*1380 FILLER_0_6_139
*1381 FILLER_0_6_141
*1382 FILLER_0_6_15
*1383 FILLER_0_6_153
*1384 FILLER_0_6_165
*1385 FILLER_0_6_177
*1386 FILLER_0_6_189
*1387 FILLER_0_6_195
*1388 FILLER_0_6_197
*1389 FILLER_0_6_209
*1390 FILLER_0_6_221
*1391 FILLER_0_6_233
*1392 FILLER_0_6_245
*1393 FILLER_0_6_251
*1394 FILLER_0_6_253
*1395 FILLER_0_6_265
*1396 FILLER_0_6_27
*1397 FILLER_0_6_277
*1398 FILLER_0_6_289
*1399 FILLER_0_6_29
*1400 FILLER_0_6_3
*1401 FILLER_0_6_301
*1402 FILLER_0_6_307
*1403 FILLER_0_6_309
*1404 FILLER_0_6_321
*1405 FILLER_0_6_333
*1406 FILLER_0_6_41
*1407 FILLER_0_6_53
*1408 FILLER_0_6_65
*1409 FILLER_0_6_77
*1410 FILLER_0_6_83
*1411 FILLER_0_6_85
*1412 FILLER_0_6_97
*1413 FILLER_0_7_105
*1414 FILLER_0_7_111
*1415 FILLER_0_7_113
*1416 FILLER_0_7_125
*1417 FILLER_0_7_137
*1418 FILLER_0_7_149
*1419 FILLER_0_7_15
*1420 FILLER_0_7_161
*1421 FILLER_0_7_167
*1422 FILLER_0_7_169
*1423 FILLER_0_7_181
*1424 FILLER_0_7_193
*1425 FILLER_0_7_205
*1426 FILLER_0_7_217
*1427 FILLER_0_7_223
*1428 FILLER_0_7_225
*1429 FILLER_0_7_237
*1430 FILLER_0_7_249
*1431 FILLER_0_7_261
*1432 FILLER_0_7_27
*1433 FILLER_0_7_273
*1434 FILLER_0_7_279
*1435 FILLER_0_7_281
*1436 FILLER_0_7_293
*1437 FILLER_0_7_3
*1438 FILLER_0_7_305
*1439 FILLER_0_7_317
*1440 FILLER_0_7_329
*1441 FILLER_0_7_39
*1442 FILLER_0_7_51
*1443 FILLER_0_7_55
*1444 FILLER_0_7_57
*1445 FILLER_0_7_69
*1446 FILLER_0_7_81
*1447 FILLER_0_7_93
*1448 FILLER_0_8_109
*1449 FILLER_0_8_121
*1450 FILLER_0_8_133
*1451 FILLER_0_8_139
*1452 FILLER_0_8_141
*1453 FILLER_0_8_15
*1454 FILLER_0_8_153
*1455 FILLER_0_8_165
*1456 FILLER_0_8_177
*1457 FILLER_0_8_189
*1458 FILLER_0_8_195
*1459 FILLER_0_8_197
*1460 FILLER_0_8_209
*1461 FILLER_0_8_221
*1462 FILLER_0_8_233
*1463 FILLER_0_8_245
*1464 FILLER_0_8_251
*1465 FILLER_0_8_253
*1466 FILLER_0_8_265
*1467 FILLER_0_8_27
*1468 FILLER_0_8_277
*1469 FILLER_0_8_289
*1470 FILLER_0_8_29
*1471 FILLER_0_8_3
*1472 FILLER_0_8_301
*1473 FILLER_0_8_307
*1474 FILLER_0_8_309
*1475 FILLER_0_8_321
*1476 FILLER_0_8_333
*1477 FILLER_0_8_41
*1478 FILLER_0_8_53
*1479 FILLER_0_8_65
*1480 FILLER_0_8_77
*1481 FILLER_0_8_83
*1482 FILLER_0_8_85
*1483 FILLER_0_8_97
*1484 FILLER_0_9_105
*1485 FILLER_0_9_111
*1486 FILLER_0_9_113
*1487 FILLER_0_9_125
*1488 FILLER_0_9_137
*1489 FILLER_0_9_149
*1490 FILLER_0_9_15
*1491 FILLER_0_9_161
*1492 FILLER_0_9_167
*1493 FILLER_0_9_169
*1494 FILLER_0_9_181
*1495 FILLER_0_9_193
*1496 FILLER_0_9_205
*1497 FILLER_0_9_217
*1498 FILLER_0_9_223
*1499 FILLER_0_9_225
*1500 FILLER_0_9_237
*1501 FILLER_0_9_249
*1502 FILLER_0_9_261
*1503 FILLER_0_9_27
*1504 FILLER_0_9_273
*1505 FILLER_0_9_279
*1506 FILLER_0_9_281
*1507 FILLER_0_9_293
*1508 FILLER_0_9_3
*1509 FILLER_0_9_305
*1510 FILLER_0_9_317
*1511 FILLER_0_9_329
*1512 FILLER_0_9_39
*1513 FILLER_0_9_51
*1514 FILLER_0_9_55
*1515 FILLER_0_9_57
*1516 FILLER_0_9_69
*1517 FILLER_0_9_81
*1518 FILLER_0_9_93
*1519 PHY_EDGE_ROW_0_Left_39
*1520 PHY_EDGE_ROW_0_Right_0
*1521 PHY_EDGE_ROW_10_Left_49
*1522 PHY_EDGE_ROW_10_Right_10
*1523 PHY_EDGE_ROW_11_Left_50