*SPEF "ieee 1481-1999"
*DESIGN "tt_um_wokwi_395055252374155265"
*DATE "13:37:15 Saturday April 13, 2024"
*VENDOR "The OpenROAD Project"
*PROGRAM "OpenROAD"
*VERSION "0889970d1790a2617e69f253221b8bd7626e51dc"
*DESIGN_FLOW "NAME_SCOPE LOCAL" "PIN_CAP NONE"
*DIVIDER /
*DELIMITER :
*BUS_DELIMITER []
*T_UNIT 1 NS
*C_UNIT 1 PF
*R_UNIT 1 OHM
*L_UNIT 1 HENRY

*NAME_MAP
*3 clk
*4 ena
*5 rst_n
*6 ui_in[0]
*7 ui_in[1]
*8 ui_in[2]
*9 ui_in[3]
*10 ui_in[4]
*11 ui_in[5]
*12 ui_in[6]
*13 ui_in[7]
*14 uio_in[0]
*15 uio_in[1]
*16 uio_in[2]
*17 uio_in[3]
*18 uio_in[4]
*19 uio_in[5]
*20 uio_in[6]
*21 uio_in[7]
*22 net24
*23 net6
*24 net7
*25 net8
*26 net9
*27 net10
*28 net11
*29 net12
*30 uio_out[0]
*31 net13
*32 net14
*33 net15
*34 net16
*35 net17
*36 net18
*37 net19
*38 uo_out[0]
*39 uo_out[1]
*40 uo_out[2]
*41 uo_out[3]
*42 net20
*43 net21
*44 net22
*45 net23
*46 _00_
*47 flop1\.notq
*48 flop1\.q
*49 net1
*50 net2
*51 net3
*52 net4
*53 net5
*54 or1\.out
*55 xor1\.out
*56 FILLER_0_0_109
*57 FILLER_0_0_113
*58 FILLER_0_0_125
*59 FILLER_0_0_137
*60 FILLER_0_0_141
*61 FILLER_0_0_15
*62 FILLER_0_0_153
*63 FILLER_0_0_165
*64 FILLER_0_0_169
*65 FILLER_0_0_181
*66 FILLER_0_0_193
*67 FILLER_0_0_197
*68 FILLER_0_0_209
*69 FILLER_0_0_221
*70 FILLER_0_0_225
*71 FILLER_0_0_237
*72 FILLER_0_0_249
*73 FILLER_0_0_253
*74 FILLER_0_0_265
*75 FILLER_0_0_27
*76 FILLER_0_0_277
*77 FILLER_0_0_281
*78 FILLER_0_0_29
*79 FILLER_0_0_293
*80 FILLER_0_0_3
*81 FILLER_0_0_305
*82 FILLER_0_0_309
*83 FILLER_0_0_321
*84 FILLER_0_0_333
*85 FILLER_0_0_41
*86 FILLER_0_0_53
*87 FILLER_0_0_57
*88 FILLER_0_0_69
*89 FILLER_0_0_81
*90 FILLER_0_0_85
*91 FILLER_0_0_97
*92 FILLER_0_10_109
*93 FILLER_0_10_121
*94 FILLER_0_10_133
*95 FILLER_0_10_139
*96 FILLER_0_10_141
*97 FILLER_0_10_15
*98 FILLER_0_10_153
*99 FILLER_0_10_165
*100 FILLER_0_10_177
*101 FILLER_0_10_189
*102 FILLER_0_10_195
*103 FILLER_0_10_197
*104 FILLER_0_10_209
*105 FILLER_0_10_221
*106 FILLER_0_10_233
*107 FILLER_0_10_245
*108 FILLER_0_10_251
*109 FILLER_0_10_253
*110 FILLER_0_10_265
*111 FILLER_0_10_27
*112 FILLER_0_10_277
*113 FILLER_0_10_289
*114 FILLER_0_10_29
*115 FILLER_0_10_3
*116 FILLER_0_10_301
*117 FILLER_0_10_307
*118 FILLER_0_10_309
*119 FILLER_0_10_321
*120 FILLER_0_10_333
*121 FILLER_0_10_41
*122 FILLER_0_10_53
*123 FILLER_0_10_65
*124 FILLER_0_10_77
*125 FILLER_0_10_83
*126 FILLER_0_10_85
*127 FILLER_0_10_97
*128 FILLER_0_11_105
*129 FILLER_0_11_111
*130 FILLER_0_11_113
*131 FILLER_0_11_125
*132 FILLER_0_11_137
*133 FILLER_0_11_149
*134 FILLER_0_11_15
*135 FILLER_0_11_161
*136 FILLER_0_11_167
*137 FILLER_0_11_169
*138 FILLER_0_11_181
*139 FILLER_0_11_193
*140 FILLER_0_11_205
*141 FILLER_0_11_217
*142 FILLER_0_11_223
*143 FILLER_0_11_225
*144 FILLER_0_11_237
*145 FILLER_0_11_249
*146 FILLER_0_11_261
*147 FILLER_0_11_27
*148 FILLER_0_11_273
*149 FILLER_0_11_279
*150 FILLER_0_11_281
*151 FILLER_0_11_293
*152 FILLER_0_11_3
*153 FILLER_0_11_305
*154 FILLER_0_11_317
*155 FILLER_0_11_329
*156 FILLER_0_11_39
*157 FILLER_0_11_51
*158 FILLER_0_11_55
*159 FILLER_0_11_57
*160 FILLER_0_11_69
*161 FILLER_0_11_81
*162 FILLER_0_11_93
*163 FILLER_0_12_109
*164 FILLER_0_12_121
*165 FILLER_0_12_133
*166 FILLER_0_12_139
*167 FILLER_0_12_141
*168 FILLER_0_12_15
*169 FILLER_0_12_153
*170 FILLER_0_12_165
*171 FILLER_0_12_177
*172 FILLER_0_12_189
*173 FILLER_0_12_195
*174 FILLER_0_12_197
*175 FILLER_0_12_209
*176 FILLER_0_12_221
*177 FILLER_0_12_233
*178 FILLER_0_12_245
*179 FILLER_0_12_251
*180 FILLER_0_12_253
*181 FILLER_0_12_265
*182 FILLER_0_12_27
*183 FILLER_0_12_277
*184 FILLER_0_12_289
*185 FILLER_0_12_29
*186 FILLER_0_12_3
*187 FILLER_0_12_301
*188 FILLER_0_12_307
*189 FILLER_0_12_309
*190 FILLER_0_12_321
*191 FILLER_0_12_333
*192 FILLER_0_12_41
*193 FILLER_0_12_53
*194 FILLER_0_12_65
*195 FILLER_0_12_77
*196 FILLER_0_12_83
*197 FILLER_0_12_85
*198 FILLER_0_12_97
*199 FILLER_0_13_105
*200 FILLER_0_13_111
*201 FILLER_0_13_113
*202 FILLER_0_13_125
*203 FILLER_0_13_137
*204 FILLER_0_13_149
*205 FILLER_0_13_15
*206 FILLER_0_13_161
*207 FILLER_0_13_167
*208 FILLER_0_13_169
*209 FILLER_0_13_181
*210 FILLER_0_13_193
*211 FILLER_0_13_205
*212 FILLER_0_13_217
*213 FILLER_0_13_223
*214 FILLER_0_13_225
*215 FILLER_0_13_237
*216 FILLER_0_13_249
*217 FILLER_0_13_261
*218 FILLER_0_13_27
*219 FILLER_0_13_273
*220 FILLER_0_13_279
*221 FILLER_0_13_281
*222 FILLER_0_13_293
*223 FILLER_0_13_3
*224 FILLER_0_13_305
*225 FILLER_0_13_317
*226 FILLER_0_13_329
*227 FILLER_0_13_39
*228 FILLER_0_13_51
*229 FILLER_0_13_55
*230 FILLER_0_13_57
*231 FILLER_0_13_69
*232 FILLER_0_13_81
*233 FILLER_0_13_93
*234 FILLER_0_14_109
*235 FILLER_0_14_121
*236 FILLER_0_14_133
*237 FILLER_0_14_139
*238 FILLER_0_14_141
*239 FILLER_0_14_15
*240 FILLER_0_14_153
*241 FILLER_0_14_165
*242 FILLER_0_14_177
*243 FILLER_0_14_189
*244 FILLER_0_14_195
*245 FILLER_0_14_197
*246 FILLER_0_14_209
*247 FILLER_0_14_221
*248 FILLER_0_14_233
*249 FILLER_0_14_245
*250 FILLER_0_14_251
*251 FILLER_0_14_253
*252 FILLER_0_14_265
*253 FILLER_0_14_27
*254 FILLER_0_14_277
*255 FILLER_0_14_289
*256 FILLER_0_14_29
*257 FILLER_0_14_3
*258 FILLER_0_14_301
*259 FILLER_0_14_307
*260 FILLER_0_14_309
*261 FILLER_0_14_321
*262 FILLER_0_14_333
*263 FILLER_0_14_41
*264 FILLER_0_14_53
*265 FILLER_0_14_65
*266 FILLER_0_14_77
*267 FILLER_0_14_83
*268 FILLER_0_14_85
*269 FILLER_0_14_97
*270 FILLER_0_15_105
*271 FILLER_0_15_111
*272 FILLER_0_15_113
*273 FILLER_0_15_125
*274 FILLER_0_15_137
*275 FILLER_0_15_149
*276 FILLER_0_15_15
*277 FILLER_0_15_161
*278 FILLER_0_15_167
*279 FILLER_0_15_169
*280 FILLER_0_15_181
*281 FILLER_0_15_193
*282 FILLER_0_15_205
*283 FILLER_0_15_217
*284 FILLER_0_15_223
*285 FILLER_0_15_225
*286 FILLER_0_15_237
*287 FILLER_0_15_249
*288 FILLER_0_15_261
*289 FILLER_0_15_27
*290 FILLER_0_15_273
*291 FILLER_0_15_279
*292 FILLER_0_15_281
*293 FILLER_0_15_293
*294 FILLER_0_15_3
*295 FILLER_0_15_305
*296 FILLER_0_15_317
*297 FILLER_0_15_329
*298 FILLER_0_15_39
*299 FILLER_0_15_51
*300 FILLER_0_15_55
*301 FILLER_0_15_57
*302 FILLER_0_15_69
*303 FILLER_0_15_81
*304 FILLER_0_15_93
*305 FILLER_0_16_109
*306 FILLER_0_16_121
*307 FILLER_0_16_133
*308 FILLER_0_16_139
*309 FILLER_0_16_141
*310 FILLER_0_16_15
*311 FILLER_0_16_153
*312 FILLER_0_16_165
*313 FILLER_0_16_177
*314 FILLER_0_16_189
*315 FILLER_0_16_195
*316 FILLER_0_16_197
*317 FILLER_0_16_209
*318 FILLER_0_16_221
*319 FILLER_0_16_233
*320 FILLER_0_16_245
*321 FILLER_0_16_251
*322 FILLER_0_16_253
*323 FILLER_0_16_265
*324 FILLER_0_16_27
*325 FILLER_0_16_277
*326 FILLER_0_16_289
*327 FILLER_0_16_29
*328 FILLER_0_16_3
*329 FILLER_0_16_301
*330 FILLER_0_16_307
*331 FILLER_0_16_309
*332 FILLER_0_16_321
*333 FILLER_0_16_333
*334 FILLER_0_16_41
*335 FILLER_0_16_53
*336 FILLER_0_16_65
*337 FILLER_0_16_77
*338 FILLER_0_16_83
*339 FILLER_0_16_85
*340 FILLER_0_16_97
*341 FILLER_0_17_105
*342 FILLER_0_17_111
*343 FILLER_0_17_113
*344 FILLER_0_17_125
*345 FILLER_0_17_137
*346 FILLER_0_17_149
*347 FILLER_0_17_15
*348 FILLER_0_17_161
*349 FILLER_0_17_167
*350 FILLER_0_17_169
*351 FILLER_0_17_181
*352 FILLER_0_17_193
*353 FILLER_0_17_205
*354 FILLER_0_17_217
*355 FILLER_0_17_223
*356 FILLER_0_17_225
*357 FILLER_0_17_237
*358 FILLER_0_17_249
*359 FILLER_0_17_261
*360 FILLER_0_17_27
*361 FILLER_0_17_273
*362 FILLER_0_17_279
*363 FILLER_0_17_281
*364 FILLER_0_17_293
*365 FILLER_0_17_3
*366 FILLER_0_17_305
*367 FILLER_0_17_317
*368 FILLER_0_17_329
*369 FILLER_0_17_39
*370 FILLER_0_17_51
*371 FILLER_0_17_55
*372 FILLER_0_17_57
*373 FILLER_0_17_69
*374 FILLER_0_17_81
*375 FILLER_0_17_93
*376 FILLER_0_18_109
*377 FILLER_0_18_121
*378 FILLER_0_18_133
*379 FILLER_0_18_139
*380 FILLER_0_18_141
*381 FILLER_0_18_15
*382 FILLER_0_18_153
*383 FILLER_0_18_165
*384 FILLER_0_18_177
*385 FILLER_0_18_189
*386 FILLER_0_18_195
*387 FILLER_0_18_197
*388 FILLER_0_18_209
*389 FILLER_0_18_221
*390 FILLER_0_18_233
*391 FILLER_0_18_245
*392 FILLER_0_18_251
*393 FILLER_0_18_253
*394 FILLER_0_18_265
*395 FILLER_0_18_27
*396 FILLER_0_18_277
*397 FILLER_0_18_289
*398 FILLER_0_18_29
*399 FILLER_0_18_3
*400 FILLER_0_18_301
*401 FILLER_0_18_307
*402 FILLER_0_18_309
*403 FILLER_0_18_321
*404 FILLER_0_18_333
*405 FILLER_0_18_41
*406 FILLER_0_18_53
*407 FILLER_0_18_65
*408 FILLER_0_18_77
*409 FILLER_0_18_83
*410 FILLER_0_18_85
*411 FILLER_0_18_97
*412 FILLER_0_19_105
*413 FILLER_0_19_111
*414 FILLER_0_19_113
*415 FILLER_0_19_125
*416 FILLER_0_19_137
*417 FILLER_0_19_149
*418 FILLER_0_19_15
*419 FILLER_0_19_161
*420 FILLER_0_19_167
*421 FILLER_0_19_169
*422 FILLER_0_19_181
*423 FILLER_0_19_193
*424 FILLER_0_19_205
*425 FILLER_0_19_217
*426 FILLER_0_19_223
*427 FILLER_0_19_225
*428 FILLER_0_19_237
*429 FILLER_0_19_249
*430 FILLER_0_19_261
*431 FILLER_0_19_27
*432 FILLER_0_19_273
*433 FILLER_0_19_279
*434 FILLER_0_19_281
*435 FILLER_0_19_293
*436 FILLER_0_19_3
*437 FILLER_0_19_305
*438 FILLER_0_19_317
*439 FILLER_0_19_329
*440 FILLER_0_19_39
*441 FILLER_0_19_51
*442 FILLER_0_19_55
*443 FILLER_0_19_57
*444 FILLER_0_19_69
*445 FILLER_0_19_81
*446 FILLER_0_19_93
*447 FILLER_0_1_105
*448 FILLER_0_1_111
*449 FILLER_0_1_113
*450 FILLER_0_1_125
*451 FILLER_0_1_137
*452 FILLER_0_1_149
*453 FILLER_0_1_15
*454 FILLER_0_1_161
*455 FILLER_0_1_167
*456 FILLER_0_1_169
*457 FILLER_0_1_181
*458 FILLER_0_1_193
*459 FILLER_0_1_205
*460 FILLER_0_1_217
*461 FILLER_0_1_223
*462 FILLER_0_1_225
*463 FILLER_0_1_237
*464 FILLER_0_1_249
*465 FILLER_0_1_261
*466 FILLER_0_1_27
*467 FILLER_0_1_273
*468 FILLER_0_1_279
*469 FILLER_0_1_281
*470 FILLER_0_1_293
*471 FILLER_0_1_3
*472 FILLER_0_1_305
*473 FILLER_0_1_317
*474 FILLER_0_1_329
*475 FILLER_0_1_39
*476 FILLER_0_1_51
*477 FILLER_0_1_55
*478 FILLER_0_1_57
*479 FILLER_0_1_69
*480 FILLER_0_1_81
*481 FILLER_0_1_93
*482 FILLER_0_20_109
*483 FILLER_0_20_121
*484 FILLER_0_20_133
*485 FILLER_0_20_139
*486 FILLER_0_20_141
*487 FILLER_0_20_15
*488 FILLER_0_20_153
*489 FILLER_0_20_165
*490 FILLER_0_20_177
*491 FILLER_0_20_189
*492 FILLER_0_20_195
*493 FILLER_0_20_197
*494 FILLER_0_20_209
*495 FILLER_0_20_221
*496 FILLER_0_20_233
*497 FILLER_0_20_245
*498 FILLER_0_20_251
*499 FILLER_0_20_253
*500 FILLER_0_20_265
*501 FILLER_0_20_27
*502 FILLER_0_20_277
*503 FILLER_0_20_289
*504 FILLER_0_20_29
*505 FILLER_0_20_3
*506 FILLER_0_20_301
*507 FILLER_0_20_307
*508 FILLER_0_20_309
*509 FILLER_0_20_321
*510 FILLER_0_20_333
*511 FILLER_0_20_41
*512 FILLER_0_20_53
*513 FILLER_0_20_65
*514 FILLER_0_20_77
*515 FILLER_0_20_83
*516 FILLER_0_20_85
*517 FILLER_0_20_97
*518 FILLER_0_21_105
*519 FILLER_0_21_111
*520 FILLER_0_21_113
*521 FILLER_0_21_125
*522 FILLER_0_21_137
*523 FILLER_0_21_149
*524 FILLER_0_21_15
*525 FILLER_0_21_161
*526 FILLER_0_21_167
*527 FILLER_0_21_169
*528 FILLER_0_21_181
*529 FILLER_0_21_193
*530 FILLER_0_21_205
*531 FILLER_0_21_217
*532 FILLER_0_21_223
*533 FILLER_0_21_225
*534 FILLER_0_21_237
*535 FILLER_0_21_249
*536 FILLER_0_21_261
*537 FILLER_0_21_27
*538 FILLER_0_21_273
*539 FILLER_0_21_279
*540 FILLER_0_21_281
*541 FILLER_0_21_293
*542 FILLER_0_21_3
*543 FILLER_0_21_305
*544 FILLER_0_21_317
*545 FILLER_0_21_329
*546 FILLER_0_21_39
*547 FILLER_0_21_51
*548 FILLER_0_21_55
*549 FILLER_0_21_57
*550 FILLER_0_21_69
*551 FILLER_0_21_81
*552 FILLER_0_21_93
*553 FILLER_0_22_109
*554 FILLER_0_22_121
*555 FILLER_0_22_133
*556 FILLER_0_22_139
*557 FILLER_0_22_141
*558 FILLER_0_22_15
*559 FILLER_0_22_153
*560 FILLER_0_22_165
*561 FILLER_0_22_177
*562 FILLER_0_22_189
*563 FILLER_0_22_195
*564 FILLER_0_22_197
*565 FILLER_0_22_209
*566 FILLER_0_22_221
*567 FILLER_0_22_233
*568 FILLER_0_22_245
*569 FILLER_0_22_251
*570 FILLER_0_22_253
*571 FILLER_0_22_265
*572 FILLER_0_22_27
*573 FILLER_0_22_277
*574 FILLER_0_22_289
*575 FILLER_0_22_29
*576 FILLER_0_22_3
*577 FILLER_0_22_301
*578 FILLER_0_22_307
*579 FILLER_0_22_309
*580 FILLER_0_22_321
*581 FILLER_0_22_333
*582 FILLER_0_22_41
*583 FILLER_0_22_53
*584 FILLER_0_22_65
*585 FILLER_0_22_77
*586 FILLER_0_22_83
*587 FILLER_0_22_85
*588 FILLER_0_22_97
*589 FILLER_0_23_105
*590 FILLER_0_23_111
*591 FILLER_0_23_113
*592 FILLER_0_23_125
*593 FILLER_0_23_137
*594 FILLER_0_23_149
*595 FILLER_0_23_15
*596 FILLER_0_23_161
*597 FILLER_0_23_167
*598 FILLER_0_23_169
*599 FILLER_0_23_181
*600 FILLER_0_23_193
*601 FILLER_0_23_205
*602 FILLER_0_23_217
*603 FILLER_0_23_223
*604 FILLER_0_23_225
*605 FILLER_0_23_237
*606 FILLER_0_23_249
*607 FILLER_0_23_261
*608 FILLER_0_23_27
*609 FILLER_0_23_273
*610 FILLER_0_23_279
*611 FILLER_0_23_281
*612 FILLER_0_23_293
*613 FILLER_0_23_3
*614 FILLER_0_23_305
*615 FILLER_0_23_317
*616 FILLER_0_23_329
*617 FILLER_0_23_39
*618 FILLER_0_23_51
*619 FILLER_0_23_55
*620 FILLER_0_23_57
*621 FILLER_0_23_69
*622 FILLER_0_23_81
*623 FILLER_0_23_93
*624 FILLER_0_24_109
*625 FILLER_0_24_121
*626 FILLER_0_24_133
*627 FILLER_0_24_139
*628 FILLER_0_24_141
*629 FILLER_0_24_15
*630 FILLER_0_24_153
*631 FILLER_0_24_165
*632 FILLER_0_24_177
*633 FILLER_0_24_189
*634 FILLER_0_24_195
*635 FILLER_0_24_197
*636 FILLER_0_24_209
*637 FILLER_0_24_221
*638 FILLER_0_24_233
*639 FILLER_0_24_245
*640 FILLER_0_24_251
*641 FILLER_0_24_253
*642 FILLER_0_24_265
*643 FILLER_0_24_27
*644 FILLER_0_24_277
*645 FILLER_0_24_289
*646 FILLER_0_24_29
*647 FILLER_0_24_3
*648 FILLER_0_24_301
*649 FILLER_0_24_307
*650 FILLER_0_24_309
*651 FILLER_0_24_321
*652 FILLER_0_24_333
*653 FILLER_0_24_41
*654 FILLER_0_24_53
*655 FILLER_0_24_65
*656 FILLER_0_24_77
*657 FILLER_0_24_83
*658 FILLER_0_24_85
*659 FILLER_0_24_97
*660 FILLER_0_25_105
*661 FILLER_0_25_111
*662 FILLER_0_25_113
*663 FILLER_0_25_125
*664 FILLER_0_25_137
*665 FILLER_0_25_149
*666 FILLER_0_25_15
*667 FILLER_0_25_161
*668 FILLER_0_25_167
*669 FILLER_0_25_169
*670 FILLER_0_25_181
*671 FILLER_0_25_193
*672 FILLER_0_25_205
*673 FILLER_0_25_217
*674 FILLER_0_25_223
*675 FILLER_0_25_225
*676 FILLER_0_25_237
*677 FILLER_0_25_249
*678 FILLER_0_25_261
*679 FILLER_0_25_27
*680 FILLER_0_25_273
*681 FILLER_0_25_279
*682 FILLER_0_25_281
*683 FILLER_0_25_293
*684 FILLER_0_25_3
*685 FILLER_0_25_305
*686 FILLER_0_25_317
*687 FILLER_0_25_329
*688 FILLER_0_25_39
*689 FILLER_0_25_51
*690 FILLER_0_25_55
*691 FILLER_0_25_57
*692 FILLER_0_25_69
*693 FILLER_0_25_81
*694 FILLER_0_25_93
*695 FILLER_0_26_109
*696 FILLER_0_26_121
*697 FILLER_0_26_133
*698 FILLER_0_26_139
*699 FILLER_0_26_141
*700 FILLER_0_26_15
*701 FILLER_0_26_153
*702 FILLER_0_26_165
*703 FILLER_0_26_177
*704 FILLER_0_26_189
*705 FILLER_0_26_195
*706 FILLER_0_26_197
*707 FILLER_0_26_209
*708 FILLER_0_26_221
*709 FILLER_0_26_233
*710 FILLER_0_26_245
*711 FILLER_0_26_251
*712 FILLER_0_26_253
*713 FILLER_0_26_265
*714 FILLER_0_26_27
*715 FILLER_0_26_277
*716 FILLER_0_26_289
*717 FILLER_0_26_29
*718 FILLER_0_26_3
*719 FILLER_0_26_301
*720 FILLER_0_26_307
*721 FILLER_0_26_309
*722 FILLER_0_26_321
*723 FILLER_0_26_333
*724 FILLER_0_26_41
*725 FILLER_0_26_53
*726 FILLER_0_26_65
*727 FILLER_0_26_77
*728 FILLER_0_26_83
*729 FILLER_0_26_85
*730 FILLER_0_26_97
*731 FILLER_0_27_105
*732 FILLER_0_27_111
*733 FILLER_0_27_113
*734 FILLER_0_27_125
*735 FILLER_0_27_137
*736 FILLER_0_27_149
*737 FILLER_0_27_15
*738 FILLER_0_27_161
*739 FILLER_0_27_167
*740 FILLER_0_27_169
*741 FILLER_0_27_181
*742 FILLER_0_27_193
*743 FILLER_0_27_205
*744 FILLER_0_27_217
*745 FILLER_0_27_223
*746 FILLER_0_27_225
*747 FILLER_0_27_237
*748 FILLER_0_27_249
*749 FILLER_0_27_261
*750 FILLER_0_27_27
*751 FILLER_0_27_273
*752 FILLER_0_27_279
*753 FILLER_0_27_281
*754 FILLER_0_27_293
*755 FILLER_0_27_3
*756 FILLER_0_27_305
*757 FILLER_0_27_317
*758 FILLER_0_27_329
*759 FILLER_0_27_39
*760 FILLER_0_27_51
*761 FILLER_0_27_55
*762 FILLER_0_27_57
*763 FILLER_0_27_69
*764 FILLER_0_27_81
*765 FILLER_0_27_93
*766 FILLER_0_28_109
*767 FILLER_0_28_121
*768 FILLER_0_28_133
*769 FILLER_0_28_139
*770 FILLER_0_28_141
*771 FILLER_0_28_15
*772 FILLER_0_28_153
*773 FILLER_0_28_165
*774 FILLER_0_28_177
*775 FILLER_0_28_189
*776 FILLER_0_28_195
*777 FILLER_0_28_197
*778 FILLER_0_28_209
*779 FILLER_0_28_221
*780 FILLER_0_28_233
*781 FILLER_0_28_245
*782 FILLER_0_28_251
*783 FILLER_0_28_253
*784 FILLER_0_28_265
*785 FILLER_0_28_27
*786 FILLER_0_28_277
*787 FILLER_0_28_289
*788 FILLER_0_28_29
*789 FILLER_0_28_3
*790 FILLER_0_28_301
*791 FILLER_0_28_307
*792 FILLER_0_28_309
*793 FILLER_0_28_321
*794 FILLER_0_28_333
*795 FILLER_0_28_41
*796 FILLER_0_28_53
*797 FILLER_0_28_65
*798 FILLER_0_28_77
*799 FILLER_0_28_83
*800 FILLER_0_28_85
*801 FILLER_0_28_97
*802 FILLER_0_29_105
*803 FILLER_0_29_111
*804 FILLER_0_29_113
*805 FILLER_0_29_125
*806 FILLER_0_29_137
*807 FILLER_0_29_149
*808 FILLER_0_29_15
*809 FILLER_0_29_161
*810 FILLER_0_29_167
*811 FILLER_0_29_169
*812 FILLER_0_29_181
*813 FILLER_0_29_193
*814 FILLER_0_29_205
*815 FILLER_0_29_217
*816 FILLER_0_29_223
*817 FILLER_0_29_225
*818 FILLER_0_29_237
*819 FILLER_0_29_249
*820 FILLER_0_29_261
*821 FILLER_0_29_27
*822 FILLER_0_29_273
*823 FILLER_0_29_279
*824 FILLER_0_29_281
*825 FILLER_0_29_293
*826 FILLER_0_29_3
*827 FILLER_0_29_305
*828 FILLER_0_29_317
*829 FILLER_0_29_329
*830 FILLER_0_29_39
*831 FILLER_0_29_51
*832 FILLER_0_29_55
*833 FILLER_0_29_57
*834 FILLER_0_29_69
*835 FILLER_0_29_81
*836 FILLER_0_29_93
*837 FILLER_0_2_109
*838 FILLER_0_2_121
*839 FILLER_0_2_133
*840 FILLER_0_2_139
*841 FILLER_0_2_141
*842 FILLER_0_2_15
*843 FILLER_0_2_153
*844 FILLER_0_2_165
*845 FILLER_0_2_177
*846 FILLER_0_2_189
*847 FILLER_0_2_195
*848 FILLER_0_2_197
*849 FILLER_0_2_209
*850 FILLER_0_2_221
*851 FILLER_0_2_233
*852 FILLER_0_2_245
*853 FILLER_0_2_251
*854 FILLER_0_2_253
*855 FILLER_0_2_265
*856 FILLER_0_2_27
*857 FILLER_0_2_277
*858 FILLER_0_2_289
*859 FILLER_0_2_29
*860 FILLER_0_2_3
*861 FILLER_0_2_301
*862 FILLER_0_2_307
*863 FILLER_0_2_309
*864 FILLER_0_2_321
*865 FILLER_0_2_333
*866 FILLER_0_2_41
*867 FILLER_0_2_53
*868 FILLER_0_2_65
*869 FILLER_0_2_77
*870 FILLER_0_2_83
*871 FILLER_0_2_85
*872 FILLER_0_2_97
*873 FILLER_0_30_109
*874 FILLER_0_30_121
*875 FILLER_0_30_133
*876 FILLER_0_30_139
*877 FILLER_0_30_141
*878 FILLER_0_30_15
*879 FILLER_0_30_153
*880 FILLER_0_30_165
*881 FILLER_0_30_177
*882 FILLER_0_30_189
*883 FILLER_0_30_195
*884 FILLER_0_30_197
*885 FILLER_0_30_209
*886 FILLER_0_30_221
*887 FILLER_0_30_233
*888 FILLER_0_30_245
*889 FILLER_0_30_251
*890 FILLER_0_30_253
*891 FILLER_0_30_265
*892 FILLER_0_30_27
*893 FILLER_0_30_277
*894 FILLER_0_30_289
*895 FILLER_0_30_29
*896 FILLER_0_30_3
*897 FILLER_0_30_301
*898 FILLER_0_30_307
*899 FILLER_0_30_309
*900 FILLER_0_30_321
*901 FILLER_0_30_333
*902 FILLER_0_30_41
*903 FILLER_0_30_53
*904 FILLER_0_30_65
*905 FILLER_0_30_77
*906 FILLER_0_30_83
*907 FILLER_0_30_85
*908 FILLER_0_30_97
*909 FILLER_0_31_105
*910 FILLER_0_31_111
*911 FILLER_0_31_113
*912 FILLER_0_31_125
*913 FILLER_0_31_137
*914 FILLER_0_31_149
*915 FILLER_0_31_15
*916 FILLER_0_31_161
*917 FILLER_0_31_167
*918 FILLER_0_31_169
*919 FILLER_0_31_181
*920 FILLER_0_31_193
*921 FILLER_0_31_205
*922 FILLER_0_31_217
*923 FILLER_0_31_223
*924 FILLER_0_31_225
*925 FILLER_0_31_237
*926 FILLER_0_31_249
*927 FILLER_0_31_261
*928 FILLER_0_31_27
*929 FILLER_0_31_273
*930 FILLER_0_31_279
*931 FILLER_0_31_281
*932 FILLER_0_31_293
*933 FILLER_0_31_3
*934 FILLER_0_31_305
*935 FILLER_0_31_317
*936 FILLER_0_31_329
*937 FILLER_0_31_39
*938 FILLER_0_31_51
*939 FILLER_0_31_55
*940 FILLER_0_31_57
*941 FILLER_0_31_69
*942 FILLER_0_31_81
*943 FILLER_0_31_93
*944 FILLER_0_32_109
*945 FILLER_0_32_121
*946 FILLER_0_32_133
*947 FILLER_0_32_139
*948 FILLER_0_32_141
*949 FILLER_0_32_15
*950 FILLER_0_32_153
*951 FILLER_0_32_165
*952 FILLER_0_32_177
*953 FILLER_0_32_189
*954 FILLER_0_32_195
*955 FILLER_0_32_197
*956 FILLER_0_32_209
*957 FILLER_0_32_221
*958 FILLER_0_32_233
*959 FILLER_0_32_245
*960 FILLER_0_32_251
*961 FILLER_0_32_253
*962 FILLER_0_32_265
*963 FILLER_0_32_27
*964 FILLER_0_32_277
*965 FILLER_0_32_289
*966 FILLER_0_32_29
*967 FILLER_0_32_3
*968 FILLER_0_32_301
*969 FILLER_0_32_307
*970 FILLER_0_32_309
*971 FILLER_0_32_321
*972 FILLER_0_32_333
*973 FILLER_0_32_41
*974 FILLER_0_32_53
*975 FILLER_0_32_65
*976 FILLER_0_32_77
*977 FILLER_0_32_83
*978 FILLER_0_32_85
*979 FILLER_0_32_97
*980 FILLER_0_33_105
*981 FILLER_0_33_111
*982 FILLER_0_33_113
*983 FILLER_0_33_125
*984 FILLER_0_33_137
*985 FILLER_0_33_149
*986 FILLER_0_33_15
*987 FILLER_0_33_161
*988 FILLER_0_33_167
*989 FILLER_0_33_169
*990 FILLER_0_33_181
*991 FILLER_0_33_193
*992 FILLER_0_33_205
*993 FILLER_0_33_217
*994 FILLER_0_33_223
*995 FILLER_0_33_225
*996 FILLER_0_33_237
*997 FILLER_0_33_249
*998 FILLER_0_33_261
*999 FILLER_0_33_27
*1000 FILLER_0_33_273
*1001 FILLER_0_33_279
*1002 FILLER_0_33_281
*1003 FILLER_0_33_293
*1004 FILLER_0_33_3
*1005 FILLER_0_33_305
*1006 FILLER_0_33_317
*1007 FILLER_0_33_329
*1008 FILLER_0_33_39
*1009 FILLER_0_33_51
*1010 FILLER_0_33_55
*1011 FILLER_0_33_57
*1012 FILLER_0_33_69
*1013 FILLER_0_33_81
*1014 FILLER_0_33_93
*1015 FILLER_0_34_109
*1016 FILLER_0_34_121
*1017 FILLER_0_34_133
*1018 FILLER_0_34_139
*1019 FILLER_0_34_141
*1020 FILLER_0_34_15
*1021 FILLER_0_34_153
*1022 FILLER_0_34_165
*1023 FILLER_0_34_177
*1024 FILLER_0_34_189
*1025 FILLER_0_34_195
*1026 FILLER_0_34_197
*1027 FILLER_0_34_209
*1028 FILLER_0_34_221
*1029 FILLER_0_34_233
*1030 FILLER_0_34_245
*1031 FILLER_0_34_251
*1032 FILLER_0_34_253
*1033 FILLER_0_34_265
*1034 FILLER_0_34_27
*1035 FILLER_0_34_277
*1036 FILLER_0_34_289
*1037 FILLER_0_34_29
*1038 FILLER_0_34_3
*1039 FILLER_0_34_301
*1040 FILLER_0_34_307
*1041 FILLER_0_34_309
*1042 FILLER_0_34_321
*1043 FILLER_0_34_333
*1044 FILLER_0_34_41
*1045 FILLER_0_34_53
*1046 FILLER_0_34_65
*1047 FILLER_0_34_77
*1048 FILLER_0_34_83
*1049 FILLER_0_34_85
*1050 FILLER_0_34_97
*1051 FILLER_0_35_105
*1052 FILLER_0_35_111
*1053 FILLER_0_35_113
*1054 FILLER_0_35_125
*1055 FILLER_0_35_137
*1056 FILLER_0_35_149
*1057 FILLER_0_35_15
*1058 FILLER_0_35_161
*1059 FILLER_0_35_167
*1060 FILLER_0_35_169
*1061 FILLER_0_35_181
*1062 FILLER_0_35_193
*1063 FILLER_0_35_205
*1064 FILLER_0_35_217
*1065 FILLER_0_35_223
*1066 FILLER_0_35_225
*1067 FILLER_0_35_237
*1068 FILLER_0_35_249
*1069 FILLER_0_35_261
*1070 FILLER_0_35_27
*1071 FILLER_0_35_273
*1072 FILLER_0_35_279
*1073 FILLER_0_35_281
*1074 FILLER_0_35_293
*1075 FILLER_0_35_3
*1076 FILLER_0_35_305
*1077 FILLER_0_35_317
*1078 FILLER_0_35_329
*1079 FILLER_0_35_39
*1080 FILLER_0_35_51
*1081 FILLER_0_35_55
*1082 FILLER_0_35_57
*1083 FILLER_0_35_69
*1084 FILLER_0_35_81
*1085 FILLER_0_35_93
*1086 FILLER_0_36_109
*1087 FILLER_0_36_121
*1088 FILLER_0_36_133
*1089 FILLER_0_36_139
*1090 FILLER_0_36_141
*1091 FILLER_0_36_15
*1092 FILLER_0_36_153
*1093 FILLER_0_36_165
*1094 FILLER_0_36_177
*1095 FILLER_0_36_189
*1096 FILLER_0_36_195
*1097 FILLER_0_36_197
*1098 FILLER_0_36_209
*1099 FILLER_0_36_221
*1100 FILLER_0_36_233
*1101 FILLER_0_36_245
*1102 FILLER_0_36_251
*1103 FILLER_0_36_253
*1104 FILLER_0_36_265
*1105 FILLER_0_36_27
*1106 FILLER_0_36_277
*1107 FILLER_0_36_289
*1108 FILLER_0_36_29
*1109 FILLER_0_36_3
*1110 FILLER_0_36_301
*1111 FILLER_0_36_307
*1112 FILLER_0_36_309
*1113 FILLER_0_36_321
*1114 FILLER_0_36_333
*1115 FILLER_0_36_41
*1116 FILLER_0_36_53
*1117 FILLER_0_36_65
*1118 FILLER_0_36_77
*1119 FILLER_0_36_83
*1120 FILLER_0_36_85
*1121 FILLER_0_36_97
*1122 FILLER_0_37_105
*1123 FILLER_0_37_111
*1124 FILLER_0_37_113
*1125 FILLER_0_37_125
*1126 FILLER_0_37_137
*1127 FILLER_0_37_149
*1128 FILLER_0_37_15
*1129 FILLER_0_37_161
*1130 FILLER_0_37_167
*1131 FILLER_0_37_169
*1132 FILLER_0_37_181
*1133 FILLER_0_37_193
*1134 FILLER_0_37_205
*1135 FILLER_0_37_217
*1136 FILLER_0_37_223
*1137 FILLER_0_37_225
*1138 FILLER_0_37_237
*1139 FILLER_0_37_249
*1140 FILLER_0_37_260
*1141 FILLER_0_37_27
*1142 FILLER_0_37_272
*1143 FILLER_0_37_281
*1144 FILLER_0_37_293
*1145 FILLER_0_37_3
*1146 FILLER_0_37_305
*1147 FILLER_0_37_317
*1148 FILLER_0_37_329
*1149 FILLER_0_37_39
*1150 FILLER_0_37_51
*1151 FILLER_0_37_55
*1152 FILLER_0_37_57
*1153 FILLER_0_37_69
*1154 FILLER_0_37_81
*1155 FILLER_0_37_93
*1156 FILLER_0_38_10
*1157 FILLER_0_38_102
*1158 FILLER_0_38_106
*1159 FILLER_0_38_110
*1160 FILLER_0_38_113
*1161 FILLER_0_38_118
*1162 FILLER_0_38_130
*1163 FILLER_0_38_134
*1164 FILLER_0_38_14
*1165 FILLER_0_38_144
*1166 FILLER_0_38_150
*1167 FILLER_0_38_154
*1168 FILLER_0_38_158
*1169 FILLER_0_38_166
*1170 FILLER_0_38_169
*1171 FILLER_0_38_18
*1172 FILLER_0_38_191
*1173 FILLER_0_38_195
*1174 FILLER_0_38_203
*1175 FILLER_0_38_215
*1176 FILLER_0_38_219
*1177 FILLER_0_38_22
*1178 FILLER_0_38_223
*1179 FILLER_0_38_225
*1180 FILLER_0_38_237
*1181 FILLER_0_38_247
*1182 FILLER_0_38_251
*1183 FILLER_0_38_276
*1184 FILLER_0_38_281
*1185 FILLER_0_38_286
*1186 FILLER_0_38_290
*1187 FILLER_0_38_294
*1188 FILLER_0_38_298
*1189 FILLER_0_38_302
*1190 FILLER_0_38_312
*1191 FILLER_0_38_318
*1192 FILLER_0_38_32
*1193 FILLER_0_38_330
*1194 FILLER_0_38_334
*1195 FILLER_0_38_38
*1196 FILLER_0_38_42
*1197 FILLER_0_38_46
*1198 FILLER_0_38_50
*1199 FILLER_0_38_54
*1200 FILLER_0_38_57
*1201 FILLER_0_38_6
*1202 FILLER_0_38_62
*1203 FILLER_0_38_66
*1204 FILLER_0_38_70
*1205 FILLER_0_38_74
*1206 FILLER_0_38_78
*1207 FILLER_0_38_88
*1208 FILLER_0_38_94
*1209 FILLER_0_38_98
*1210 FILLER_0_3_105
*1211 FILLER_0_3_111
*1212 FILLER_0_3_113
*1213 FILLER_0_3_125
*1214 FILLER_0_3_137
*1215 FILLER_0_3_149
*1216 FILLER_0_3_15
*1217 FILLER_0_3_161
*1218 FILLER_0_3_167
*1219 FILLER_0_3_169
*1220 FILLER_0_3_181
*1221 FILLER_0_3_193
*1222 FILLER_0_3_205
*1223 FILLER_0_3_217
*1224 FILLER_0_3_223
*1225 FILLER_0_3_225
*1226 FILLER_0_3_237
*1227 FILLER_0_3_249
*1228 FILLER_0_3_261
*1229 FILLER_0_3_27
*1230 FILLER_0_3_273
*1231 FILLER_0_3_279
*1232 FILLER_0_3_281
*1233 FILLER_0_3_293
*1234 FILLER_0_3_3
*1235 FILLER_0_3_305
*1236 FILLER_0_3_317
*1237 FILLER_0_3_329
*1238 FILLER_0_3_39
*1239 FILLER_0_3_51
*1240 FILLER_0_3_55
*1241 FILLER_0_3_57
*1242 FILLER_0_3_69
*1243 FILLER_0_3_81
*1244 FILLER_0_3_93
*1245 FILLER_0_4_109
*1246 FILLER_0_4_121
*1247 FILLER_0_4_133
*1248 FILLER_0_4_139
*1249 FILLER_0_4_141
*1250 FILLER_0_4_15
*1251 FILLER_0_4_153
*1252 FILLER_0_4_165
*1253 FILLER_0_4_177
*1254 FILLER_0_4_189
*1255 FILLER_0_4_195
*1256 FILLER_0_4_197
*1257 FILLER_0_4_209
*1258 FILLER_0_4_221
*1259 FILLER_0_4_233
*1260 FILLER_0_4_245
*1261 FILLER_0_4_251
*1262 FILLER_0_4_253
*1263 FILLER_0_4_265
*1264 FILLER_0_4_27
*1265 FILLER_0_4_277
*1266 FILLER_0_4_289
*1267 FILLER_0_4_29
*1268 FILLER_0_4_3
*1269 FILLER_0_4_301
*1270 FILLER_0_4_307
*1271 FILLER_0_4_309
*1272 FILLER_0_4_321
*1273 FILLER_0_4_333
*1274 FILLER_0_4_41
*1275 FILLER_0_4_53
*1276 FILLER_0_4_65
*1277 FILLER_0_4_77
*1278 FILLER_0_4_83
*1279 FILLER_0_4_85
*1280 FILLER_0_4_97
*1281 FILLER_0_5_105
*1282 FILLER_0_5_111
*1283 FILLER_0_5_113
*1284 FILLER_0_5_125
*1285 FILLER_0_5_137
*1286 FILLER_0_5_149
*1287 FILLER_0_5_15
*1288 FILLER_0_5_161
*1289 FILLER_0_5_167
*1290 FILLER_0_5_169
*1291 FILLER_0_5_181
*1292 FILLER_0_5_193
*1293 FILLER_0_5_205
*1294 FILLER_0_5_217
*1295 FILLER_0_5_223
*1296 FILLER_0_5_225
*1297 FILLER_0_5_237
*1298 FILLER_0_5_249
*1299 FILLER_0_5_261
*1300 FILLER_0_5_27
*1301 FILLER_0_5_273
*1302 FILLER_0_5_279
*1303 FILLER_0_5_281
*1304 FILLER_0_5_293
*1305 FILLER_0_5_3
*1306 FILLER_0_5_305
*1307 FILLER_0_5_317
*1308 FILLER_0_5_329
*1309 FILLER_0_5_39
*1310 FILLER_0_5_51
*1311 FILLER_0_5_55
*1312 FILLER_0_5_57
*1313 FILLER_0_5_69
*1314 FILLER_0_5_81
*1315 FILLER_0_5_93
*1316 FILLER_0_6_109
*1317 FILLER_0_6_121
*1318 FILLER_0_6_133
*1319 FILLER_0_6_139
*1320 FILLER_0_6_141
*1321 FILLER_0_6_15
*1322 FILLER_0_6_153
*1323 FILLER_0_6_165
*1324 FILLER_0_6_177
*1325 FILLER_0_6_189
*1326 FILLER_0_6_195
*1327 FILLER_0_6_197
*1328 FILLER_0_6_209
*1329 FILLER_0_6_221
*1330 FILLER_0_6_233
*1331 FILLER_0_6_245
*1332 FILLER_0_6_251
*1333 FILLER_0_6_253
*1334 FILLER_0_6_265
*1335 FILLER_0_6_27
*1336 FILLER_0_6_277
*1337 FILLER_0_6_289
*1338 FILLER_0_6_29
*1339 FILLER_0_6_3
*1340 FILLER_0_6_301
*1341 FILLER_0_6_307
*1342 FILLER_0_6_309
*1343 FILLER_0_6_321
*1344 FILLER_0_6_333
*1345 FILLER_0_6_41
*1346 FILLER_0_6_53
*1347 FILLER_0_6_65
*1348 FILLER_0_6_77
*1349 FILLER_0_6_83
*1350 FILLER_0_6_85
*1351 FILLER_0_6_97
*1352 FILLER_0_7_105
*1353 FILLER_0_7_111
*1354 FILLER_0_7_113
*1355 FILLER_0_7_125
*1356 FILLER_0_7_137
*1357 FILLER_0_7_149
*1358 FILLER_0_7_15
*1359 FILLER_0_7_161
*1360 FILLER_0_7_167
*1361 FILLER_0_7_169
*1362 FILLER_0_7_181
*1363 FILLER_0_7_193
*1364 FILLER_0_7_205
*1365 FILLER_0_7_217
*1366 FILLER_0_7_223
*1367 FILLER_0_7_225
*1368 FILLER_0_7_237
*1369 FILLER_0_7_249
*1370 FILLER_0_7_261
*1371 FILLER_0_7_27
*1372 FILLER_0_7_273
*1373 FILLER_0_7_279
*1374 FILLER_0_7_281
*1375 FILLER_0_7_293
*1376 FILLER_0_7_3
*1377 FILLER_0_7_305
*1378 FILLER_0_7_317
*1379 FILLER_0_7_329
*1380 FILLER_0_7_39
*1381 FILLER_0_7_51
*1382 FILLER_0_7_55
*1383 FILLER_0_7_57
*1384 FILLER_0_7_69
*1385 FILLER_0_7_81
*1386 FILLER_0_7_93
*1387 FILLER_0_8_109
*1388 FILLER_0_8_121
*1389 FILLER_0_8_133
*1390 FILLER_0_8_139
*1391 FILLER_0_8_141
*1392 FILLER_0_8_15
*1393 FILLER_0_8_153
*1394 FILLER_0_8_165
*1395 FILLER_0_8_177
*1396 FILLER_0_8_189
*1397 FILLER_0_8_195
*1398 FILLER_0_8_197
*1399 FILLER_0_8_209
*1400 FILLER_0_8_221
*1401 FILLER_0_8_233
*1402 FILLER_0_8_245
*1403 FILLER_0_8_251
*1404 FILLER_0_8_253
*1405 FILLER_0_8_265
*1406 FILLER_0_8_27
*1407 FILLER_0_8_277
*1408 FILLER_0_8_289
*1409 FILLER_0_8_29
*1410 FILLER_0_8_3
*1411 FILLER_0_8_301
*1412 FILLER_0_8_307
*1413 FILLER_0_8_309
*1414 FILLER_0_8_321
*1415 FILLER_0_8_333
*1416 FILLER_0_8_41
*1417 FILLER_0_8_53
*1418 FILLER_0_8_65
*1419 FILLER_0_8_77
*1420 FILLER_0_8_83
*1421 FILLER_0_8_85
*1422 FILLER_0_8_97
*1423 FILLER_0_9_105
*1424 FILLER_0_9_111
*1425 FILLER_0_9_113
*1426 FILLER_0_9_125
*1427 FILLER_0_9_137
*1428 FILLER_0_9_149
*1429 FILLER_0_9_15
*1430 FILLER_0_9_161
*1431 FILLER_0_9_167
*1432 FILLER_0_9_169
*1433 FILLER_0_9_181
*1434 FILLER_0_9_193
*1435 FILLER_0_9_205
*1436 FILLER_0_9_217
*1437 FILLER_0_9_223
*1438 FILLER_0_9_225
*1439 FILLER_0_9_237
*1440 FILLER_0_9_249
*1441 FILLER_0_9_261
*1442 FILLER_0_9_27
*1443 FILLER_0_9_273
*1444 FILLER_0_9_279
*1445 FILLER_0_9_281
*1446 FILLER_0_9_293
*1447 FILLER_0_9_3
*1448 FILLER_0_9_305
*1449 FILLER_0_9_317
*1450 FILLER_0_9_329
*1451 FILLER_0_9_39
*1452 FILLER_0_9_51
*1453 FILLER_0_9_55
*1454 FILLER_0_9_57
*1455 FILLER_0_9_69
*1456 FILLER_0_9_81