*SPEF "ieee 1481-1999"
*DESIGN "tt_um_dgkaminski"
*DATE "00:55:47 Friday April 19, 2024"
*VENDOR "The OpenROAD Project"
*PROGRAM "OpenROAD"
*VERSION "0889970d1790a2617e69f253221b8bd7626e51dc"
*DESIGN_FLOW "NAME_SCOPE LOCAL" "PIN_CAP NONE"
*DIVIDER /
*DELIMITER :
*BUS_DELIMITER []
*T_UNIT 1 NS
*C_UNIT 1 PF
*R_UNIT 1 OHM
*L_UNIT 1 HENRY

*NAME_MAP
*3 clk
*4 ena
*5 rst_n
*6 ui_in[0]
*7 ui_in[1]
*8 ui_in[2]
*9 ui_in[3]
*10 ui_in[4]
*11 ui_in[5]
*12 ui_in[6]
*13 ui_in[7]
*14 uio_in[0]
*15 uio_in[1]
*16 uio_in[2]
*17 uio_in[3]
*18 uio_in[4]
*19 uio_in[5]
*20 uio_in[6]
*21 uio_in[7]
*22 net12
*23 net13
*24 net14
*25 net15
*26 net16
*27 net17
*28 net18
*29 net19
*30 net20
*31 net21
*32 net22
*33 net23
*34 net24
*35 net25
*36 net26
*37 net27
*38 uo_out[0]
*39 uo_out[1]
*40 uo_out[2]
*41 uo_out[3]
*42 uo_out[4]
*43 uo_out[5]
*44 uo_out[6]
*45 uo_out[7]
*46 _000_
*47 _001_
*48 _002_
*49 _003_
*50 _004_
*51 _005_
*52 _006_
*53 _007_
*54 _008_
*55 _009_
*56 _010_
*57 _011_
*58 _012_
*59 _013_
*60 _014_
*61 _015_
*62 _016_
*63 _017_
*64 _018_
*65 _019_
*66 _020_
*67 _021_
*68 _022_
*69 _023_
*70 _024_
*71 _025_
*72 _026_
*73 _027_
*74 _028_
*75 _029_
*76 _030_
*77 _031_
*78 _032_
*79 _033_
*80 _034_
*81 _035_
*82 _036_
*83 _037_
*84 _038_
*85 _039_
*86 _040_
*87 _041_
*88 _042_
*89 _043_
*90 _044_
*91 _045_
*92 _046_
*93 _047_
*94 _048_
*95 _049_
*96 _050_
*97 _051_
*98 _052_
*99 alu0\.C
*100 alu0\.N
*101 alu0\.V
*102 alu0\.Z
*103 net1
*104 net10
*105 net11
*106 net2
*107 net3
*108 net4
*109 net5
*110 net6
*111 net7
*112 net8
*113 net9
*114 ANTENNA_1
*115 FILLER_0_0_109
*116 FILLER_0_0_113
*117 FILLER_0_0_125
*118 FILLER_0_0_137
*119 FILLER_0_0_141
*120 FILLER_0_0_15
*121 FILLER_0_0_153
*122 FILLER_0_0_165
*123 FILLER_0_0_169
*124 FILLER_0_0_181
*125 FILLER_0_0_193
*126 FILLER_0_0_197
*127 FILLER_0_0_209
*128 FILLER_0_0_221
*129 FILLER_0_0_225
*130 FILLER_0_0_237
*131 FILLER_0_0_249
*132 FILLER_0_0_253
*133 FILLER_0_0_265
*134 FILLER_0_0_27
*135 FILLER_0_0_277
*136 FILLER_0_0_281
*137 FILLER_0_0_29
*138 FILLER_0_0_293
*139 FILLER_0_0_3
*140 FILLER_0_0_305
*141 FILLER_0_0_309
*142 FILLER_0_0_321
*143 FILLER_0_0_333
*144 FILLER_0_0_41
*145 FILLER_0_0_53
*146 FILLER_0_0_57
*147 FILLER_0_0_69
*148 FILLER_0_0_81
*149 FILLER_0_0_85
*150 FILLER_0_0_97
*151 FILLER_0_10_109
*152 FILLER_0_10_121
*153 FILLER_0_10_133
*154 FILLER_0_10_139
*155 FILLER_0_10_141
*156 FILLER_0_10_15
*157 FILLER_0_10_153
*158 FILLER_0_10_165
*159 FILLER_0_10_177
*160 FILLER_0_10_189
*161 FILLER_0_10_195
*162 FILLER_0_10_197
*163 FILLER_0_10_209
*164 FILLER_0_10_221
*165 FILLER_0_10_233
*166 FILLER_0_10_245
*167 FILLER_0_10_251
*168 FILLER_0_10_253
*169 FILLER_0_10_265
*170 FILLER_0_10_27
*171 FILLER_0_10_277
*172 FILLER_0_10_289
*173 FILLER_0_10_29
*174 FILLER_0_10_3
*175 FILLER_0_10_301
*176 FILLER_0_10_307
*177 FILLER_0_10_309
*178 FILLER_0_10_321
*179 FILLER_0_10_333
*180 FILLER_0_10_41
*181 FILLER_0_10_53
*182 FILLER_0_10_65
*183 FILLER_0_10_77
*184 FILLER_0_10_83
*185 FILLER_0_10_85
*186 FILLER_0_10_97
*187 FILLER_0_11_105
*188 FILLER_0_11_111
*189 FILLER_0_11_113
*190 FILLER_0_11_125
*191 FILLER_0_11_137
*192 FILLER_0_11_149
*193 FILLER_0_11_15
*194 FILLER_0_11_161
*195 FILLER_0_11_167
*196 FILLER_0_11_169
*197 FILLER_0_11_181
*198 FILLER_0_11_193
*199 FILLER_0_11_205
*200 FILLER_0_11_217
*201 FILLER_0_11_223
*202 FILLER_0_11_225
*203 FILLER_0_11_237
*204 FILLER_0_11_249
*205 FILLER_0_11_261
*206 FILLER_0_11_27
*207 FILLER_0_11_273
*208 FILLER_0_11_279
*209 FILLER_0_11_281
*210 FILLER_0_11_293
*211 FILLER_0_11_3
*212 FILLER_0_11_305
*213 FILLER_0_11_317
*214 FILLER_0_11_329
*215 FILLER_0_11_39
*216 FILLER_0_11_51
*217 FILLER_0_11_55
*218 FILLER_0_11_57
*219 FILLER_0_11_69
*220 FILLER_0_11_81
*221 FILLER_0_11_93
*222 FILLER_0_12_109
*223 FILLER_0_12_121
*224 FILLER_0_12_133
*225 FILLER_0_12_139
*226 FILLER_0_12_141
*227 FILLER_0_12_15
*228 FILLER_0_12_153
*229 FILLER_0_12_165
*230 FILLER_0_12_177
*231 FILLER_0_12_189
*232 FILLER_0_12_195
*233 FILLER_0_12_197
*234 FILLER_0_12_209
*235 FILLER_0_12_221
*236 FILLER_0_12_233
*237 FILLER_0_12_245
*238 FILLER_0_12_251
*239 FILLER_0_12_253
*240 FILLER_0_12_265
*241 FILLER_0_12_27
*242 FILLER_0_12_277
*243 FILLER_0_12_289
*244 FILLER_0_12_29
*245 FILLER_0_12_3
*246 FILLER_0_12_301
*247 FILLER_0_12_307
*248 FILLER_0_12_309
*249 FILLER_0_12_321
*250 FILLER_0_12_333
*251 FILLER_0_12_41
*252 FILLER_0_12_53
*253 FILLER_0_12_65
*254 FILLER_0_12_77
*255 FILLER_0_12_83
*256 FILLER_0_12_85
*257 FILLER_0_12_97
*258 FILLER_0_13_105
*259 FILLER_0_13_111
*260 FILLER_0_13_113
*261 FILLER_0_13_125
*262 FILLER_0_13_137
*263 FILLER_0_13_149
*264 FILLER_0_13_15
*265 FILLER_0_13_161
*266 FILLER_0_13_167
*267 FILLER_0_13_169
*268 FILLER_0_13_181
*269 FILLER_0_13_193
*270 FILLER_0_13_205
*271 FILLER_0_13_217
*272 FILLER_0_13_223
*273 FILLER_0_13_225
*274 FILLER_0_13_237
*275 FILLER_0_13_249
*276 FILLER_0_13_261
*277 FILLER_0_13_27
*278 FILLER_0_13_273
*279 FILLER_0_13_279
*280 FILLER_0_13_281
*281 FILLER_0_13_293
*282 FILLER_0_13_3
*283 FILLER_0_13_305
*284 FILLER_0_13_317
*285 FILLER_0_13_329
*286 FILLER_0_13_39
*287 FILLER_0_13_51
*288 FILLER_0_13_55
*289 FILLER_0_13_57
*290 FILLER_0_13_69
*291 FILLER_0_13_81
*292 FILLER_0_13_93
*293 FILLER_0_14_109
*294 FILLER_0_14_121
*295 FILLER_0_14_133
*296 FILLER_0_14_139
*297 FILLER_0_14_141
*298 FILLER_0_14_15
*299 FILLER_0_14_153
*300 FILLER_0_14_165
*301 FILLER_0_14_177
*302 FILLER_0_14_189
*303 FILLER_0_14_195
*304 FILLER_0_14_197
*305 FILLER_0_14_209
*306 FILLER_0_14_221
*307 FILLER_0_14_233
*308 FILLER_0_14_245
*309 FILLER_0_14_251
*310 FILLER_0_14_253
*311 FILLER_0_14_265
*312 FILLER_0_14_27
*313 FILLER_0_14_277
*314 FILLER_0_14_289
*315 FILLER_0_14_29
*316 FILLER_0_14_3
*317 FILLER_0_14_301
*318 FILLER_0_14_307
*319 FILLER_0_14_309
*320 FILLER_0_14_321
*321 FILLER_0_14_333
*322 FILLER_0_14_41
*323 FILLER_0_14_53
*324 FILLER_0_14_65
*325 FILLER_0_14_77
*326 FILLER_0_14_83
*327 FILLER_0_14_85
*328 FILLER_0_14_97
*329 FILLER_0_15_105
*330 FILLER_0_15_111
*331 FILLER_0_15_113
*332 FILLER_0_15_125
*333 FILLER_0_15_137
*334 FILLER_0_15_149
*335 FILLER_0_15_15
*336 FILLER_0_15_161
*337 FILLER_0_15_167
*338 FILLER_0_15_169
*339 FILLER_0_15_181
*340 FILLER_0_15_193
*341 FILLER_0_15_205
*342 FILLER_0_15_217
*343 FILLER_0_15_223
*344 FILLER_0_15_225
*345 FILLER_0_15_237
*346 FILLER_0_15_249
*347 FILLER_0_15_261
*348 FILLER_0_15_27
*349 FILLER_0_15_273
*350 FILLER_0_15_279
*351 FILLER_0_15_281
*352 FILLER_0_15_293
*353 FILLER_0_15_3
*354 FILLER_0_15_305
*355 FILLER_0_15_317
*356 FILLER_0_15_329
*357 FILLER_0_15_39
*358 FILLER_0_15_51
*359 FILLER_0_15_55
*360 FILLER_0_15_57
*361 FILLER_0_15_69
*362 FILLER_0_15_81
*363 FILLER_0_15_93
*364 FILLER_0_16_109
*365 FILLER_0_16_121
*366 FILLER_0_16_133
*367 FILLER_0_16_139
*368 FILLER_0_16_141
*369 FILLER_0_16_15
*370 FILLER_0_16_153
*371 FILLER_0_16_165
*372 FILLER_0_16_177
*373 FILLER_0_16_189
*374 FILLER_0_16_195
*375 FILLER_0_16_197
*376 FILLER_0_16_209
*377 FILLER_0_16_221
*378 FILLER_0_16_233
*379 FILLER_0_16_245
*380 FILLER_0_16_251
*381 FILLER_0_16_253
*382 FILLER_0_16_265
*383 FILLER_0_16_27
*384 FILLER_0_16_277
*385 FILLER_0_16_289
*386 FILLER_0_16_29
*387 FILLER_0_16_3
*388 FILLER_0_16_301
*389 FILLER_0_16_307
*390 FILLER_0_16_309
*391 FILLER_0_16_321
*392 FILLER_0_16_333
*393 FILLER_0_16_41
*394 FILLER_0_16_53
*395 FILLER_0_16_65
*396 FILLER_0_16_77
*397 FILLER_0_16_83
*398 FILLER_0_16_85
*399 FILLER_0_16_97
*400 FILLER_0_17_105
*401 FILLER_0_17_111
*402 FILLER_0_17_113
*403 FILLER_0_17_125
*404 FILLER_0_17_137
*405 FILLER_0_17_149
*406 FILLER_0_17_15
*407 FILLER_0_17_161
*408 FILLER_0_17_167
*409 FILLER_0_17_169
*410 FILLER_0_17_181
*411 FILLER_0_17_193
*412 FILLER_0_17_205
*413 FILLER_0_17_217
*414 FILLER_0_17_223
*415 FILLER_0_17_225
*416 FILLER_0_17_237
*417 FILLER_0_17_249
*418 FILLER_0_17_261
*419 FILLER_0_17_27
*420 FILLER_0_17_273
*421 FILLER_0_17_279
*422 FILLER_0_17_281
*423 FILLER_0_17_293
*424 FILLER_0_17_3
*425 FILLER_0_17_305
*426 FILLER_0_17_317
*427 FILLER_0_17_329
*428 FILLER_0_17_39
*429 FILLER_0_17_51
*430 FILLER_0_17_55
*431 FILLER_0_17_57
*432 FILLER_0_17_69
*433 FILLER_0_17_81
*434 FILLER_0_17_93
*435 FILLER_0_18_109
*436 FILLER_0_18_121
*437 FILLER_0_18_133
*438 FILLER_0_18_139
*439 FILLER_0_18_141
*440 FILLER_0_18_15
*441 FILLER_0_18_153
*442 FILLER_0_18_165
*443 FILLER_0_18_177
*444 FILLER_0_18_189
*445 FILLER_0_18_195
*446 FILLER_0_18_197
*447 FILLER_0_18_209
*448 FILLER_0_18_221
*449 FILLER_0_18_233
*450 FILLER_0_18_245
*451 FILLER_0_18_251
*452 FILLER_0_18_253
*453 FILLER_0_18_265
*454 FILLER_0_18_27
*455 FILLER_0_18_277
*456 FILLER_0_18_289
*457 FILLER_0_18_29
*458 FILLER_0_18_3
*459 FILLER_0_18_301
*460 FILLER_0_18_307
*461 FILLER_0_18_309
*462 FILLER_0_18_321
*463 FILLER_0_18_333
*464 FILLER_0_18_41
*465 FILLER_0_18_53
*466 FILLER_0_18_65
*467 FILLER_0_18_77
*468 FILLER_0_18_83
*469 FILLER_0_18_85
*470 FILLER_0_18_97
*471 FILLER_0_19_105
*472 FILLER_0_19_111
*473 FILLER_0_19_113
*474 FILLER_0_19_125
*475 FILLER_0_19_137
*476 FILLER_0_19_149
*477 FILLER_0_19_15
*478 FILLER_0_19_161
*479 FILLER_0_19_167
*480 FILLER_0_19_169
*481 FILLER_0_19_181
*482 FILLER_0_19_193
*483 FILLER_0_19_205
*484 FILLER_0_19_217
*485 FILLER_0_19_223
*486 FILLER_0_19_225
*487 FILLER_0_19_237
*488 FILLER_0_19_249
*489 FILLER_0_19_261
*490 FILLER_0_19_27
*491 FILLER_0_19_273
*492 FILLER_0_19_279
*493 FILLER_0_19_281
*494 FILLER_0_19_293
*495 FILLER_0_19_3
*496 FILLER_0_19_305
*497 FILLER_0_19_317
*498 FILLER_0_19_329
*499 FILLER_0_19_39
*500 FILLER_0_19_51
*501 FILLER_0_19_55
*502 FILLER_0_19_57
*503 FILLER_0_19_69
*504 FILLER_0_19_81
*505 FILLER_0_19_93
*506 FILLER_0_1_105
*507 FILLER_0_1_111
*508 FILLER_0_1_113
*509 FILLER_0_1_125
*510 FILLER_0_1_137
*511 FILLER_0_1_149
*512 FILLER_0_1_15
*513 FILLER_0_1_161
*514 FILLER_0_1_167
*515 FILLER_0_1_169
*516 FILLER_0_1_181
*517 FILLER_0_1_193
*518 FILLER_0_1_205
*519 FILLER_0_1_217
*520 FILLER_0_1_223
*521 FILLER_0_1_225
*522 FILLER_0_1_237
*523 FILLER_0_1_249
*524 FILLER_0_1_261
*525 FILLER_0_1_27
*526 FILLER_0_1_273
*527 FILLER_0_1_279
*528 FILLER_0_1_281
*529 FILLER_0_1_293
*530 FILLER_0_1_3
*531 FILLER_0_1_305
*532 FILLER_0_1_317
*533 FILLER_0_1_329
*534 FILLER_0_1_39
*535 FILLER_0_1_51
*536 FILLER_0_1_55
*537 FILLER_0_1_57
*538 FILLER_0_1_69
*539 FILLER_0_1_81
*540 FILLER_0_1_93
*541 FILLER_0_20_109
*542 FILLER_0_20_121
*543 FILLER_0_20_133
*544 FILLER_0_20_139
*545 FILLER_0_20_141
*546 FILLER_0_20_15
*547 FILLER_0_20_153
*548 FILLER_0_20_165
*549 FILLER_0_20_177
*550 FILLER_0_20_189
*551 FILLER_0_20_195
*552 FILLER_0_20_197
*553 FILLER_0_20_209
*554 FILLER_0_20_221
*555 FILLER_0_20_233
*556 FILLER_0_20_245
*557 FILLER_0_20_251
*558 FILLER_0_20_253
*559 FILLER_0_20_265
*560 FILLER_0_20_27
*561 FILLER_0_20_277
*562 FILLER_0_20_289
*563 FILLER_0_20_29
*564 FILLER_0_20_3
*565 FILLER_0_20_301
*566 FILLER_0_20_307
*567 FILLER_0_20_309
*568 FILLER_0_20_321
*569 FILLER_0_20_333
*570 FILLER_0_20_41
*571 FILLER_0_20_53
*572 FILLER_0_20_65
*573 FILLER_0_20_77
*574 FILLER_0_20_83
*575 FILLER_0_20_85
*576 FILLER_0_20_97
*577 FILLER_0_21_105
*578 FILLER_0_21_111
*579 FILLER_0_21_113
*580 FILLER_0_21_125
*581 FILLER_0_21_137
*582 FILLER_0_21_149
*583 FILLER_0_21_15
*584 FILLER_0_21_161
*585 FILLER_0_21_167
*586 FILLER_0_21_169
*587 FILLER_0_21_181
*588 FILLER_0_21_193
*589 FILLER_0_21_205
*590 FILLER_0_21_217
*591 FILLER_0_21_223
*592 FILLER_0_21_225
*593 FILLER_0_21_237
*594 FILLER_0_21_249
*595 FILLER_0_21_261
*596 FILLER_0_21_27
*597 FILLER_0_21_273
*598 FILLER_0_21_279
*599 FILLER_0_21_281
*600 FILLER_0_21_293
*601 FILLER_0_21_3
*602 FILLER_0_21_305
*603 FILLER_0_21_317
*604 FILLER_0_21_329
*605 FILLER_0_21_39
*606 FILLER_0_21_51
*607 FILLER_0_21_55
*608 FILLER_0_21_57
*609 FILLER_0_21_69
*610 FILLER_0_21_81
*611 FILLER_0_21_93
*612 FILLER_0_22_109
*613 FILLER_0_22_121
*614 FILLER_0_22_133
*615 FILLER_0_22_139
*616 FILLER_0_22_141
*617 FILLER_0_22_15
*618 FILLER_0_22_153
*619 FILLER_0_22_165
*620 FILLER_0_22_177
*621 FILLER_0_22_189
*622 FILLER_0_22_195
*623 FILLER_0_22_197
*624 FILLER_0_22_209
*625 FILLER_0_22_221
*626 FILLER_0_22_233
*627 FILLER_0_22_245
*628 FILLER_0_22_251
*629 FILLER_0_22_253
*630 FILLER_0_22_265
*631 FILLER_0_22_27
*632 FILLER_0_22_277
*633 FILLER_0_22_289
*634 FILLER_0_22_29
*635 FILLER_0_22_3
*636 FILLER_0_22_301
*637 FILLER_0_22_307
*638 FILLER_0_22_309
*639 FILLER_0_22_321
*640 FILLER_0_22_333
*641 FILLER_0_22_41
*642 FILLER_0_22_53
*643 FILLER_0_22_65
*644 FILLER_0_22_77
*645 FILLER_0_22_83
*646 FILLER_0_22_85
*647 FILLER_0_22_97
*648 FILLER_0_23_105
*649 FILLER_0_23_111
*650 FILLER_0_23_113
*651 FILLER_0_23_125
*652 FILLER_0_23_137
*653 FILLER_0_23_149
*654 FILLER_0_23_15
*655 FILLER_0_23_161
*656 FILLER_0_23_167
*657 FILLER_0_23_169
*658 FILLER_0_23_181
*659 FILLER_0_23_193
*660 FILLER_0_23_205
*661 FILLER_0_23_217
*662 FILLER_0_23_223
*663 FILLER_0_23_225
*664 FILLER_0_23_237
*665 FILLER_0_23_249
*666 FILLER_0_23_261
*667 FILLER_0_23_27
*668 FILLER_0_23_273
*669 FILLER_0_23_279
*670 FILLER_0_23_281
*671 FILLER_0_23_293
*672 FILLER_0_23_3
*673 FILLER_0_23_305
*674 FILLER_0_23_317
*675 FILLER_0_23_329
*676 FILLER_0_23_39
*677 FILLER_0_23_51
*678 FILLER_0_23_55
*679 FILLER_0_23_57
*680 FILLER_0_23_69
*681 FILLER_0_23_81
*682 FILLER_0_23_93
*683 FILLER_0_24_109
*684 FILLER_0_24_121
*685 FILLER_0_24_133
*686 FILLER_0_24_139
*687 FILLER_0_24_141
*688 FILLER_0_24_15
*689 FILLER_0_24_153
*690 FILLER_0_24_165
*691 FILLER_0_24_177
*692 FILLER_0_24_189
*693 FILLER_0_24_195
*694 FILLER_0_24_197
*695 FILLER_0_24_209
*696 FILLER_0_24_221
*697 FILLER_0_24_233
*698 FILLER_0_24_245
*699 FILLER_0_24_251
*700 FILLER_0_24_253
*701 FILLER_0_24_265
*702 FILLER_0_24_27
*703 FILLER_0_24_277
*704 FILLER_0_24_289
*705 FILLER_0_24_29
*706 FILLER_0_24_3
*707 FILLER_0_24_301
*708 FILLER_0_24_307
*709 FILLER_0_24_309
*710 FILLER_0_24_321
*711 FILLER_0_24_333
*712 FILLER_0_24_41
*713 FILLER_0_24_53
*714 FILLER_0_24_65
*715 FILLER_0_24_77
*716 FILLER_0_24_83
*717 FILLER_0_24_85
*718 FILLER_0_24_97
*719 FILLER_0_25_105
*720 FILLER_0_25_111
*721 FILLER_0_25_113
*722 FILLER_0_25_125
*723 FILLER_0_25_137
*724 FILLER_0_25_149
*725 FILLER_0_25_15
*726 FILLER_0_25_161
*727 FILLER_0_25_167
*728 FILLER_0_25_169
*729 FILLER_0_25_181
*730 FILLER_0_25_193
*731 FILLER_0_25_205
*732 FILLER_0_25_217
*733 FILLER_0_25_223
*734 FILLER_0_25_225
*735 FILLER_0_25_237
*736 FILLER_0_25_249
*737 FILLER_0_25_261
*738 FILLER_0_25_27
*739 FILLER_0_25_273
*740 FILLER_0_25_279
*741 FILLER_0_25_281
*742 FILLER_0_25_293
*743 FILLER_0_25_3
*744 FILLER_0_25_305
*745 FILLER_0_25_317
*746 FILLER_0_25_329
*747 FILLER_0_25_39
*748 FILLER_0_25_51
*749 FILLER_0_25_55
*750 FILLER_0_25_57
*751 FILLER_0_25_69
*752 FILLER_0_25_81
*753 FILLER_0_25_93
*754 FILLER_0_26_109
*755 FILLER_0_26_121
*756 FILLER_0_26_133
*757 FILLER_0_26_139
*758 FILLER_0_26_141
*759 FILLER_0_26_15
*760 FILLER_0_26_153
*761 FILLER_0_26_165
*762 FILLER_0_26_177
*763 FILLER_0_26_189
*764 FILLER_0_26_195
*765 FILLER_0_26_197
*766 FILLER_0_26_209
*767 FILLER_0_26_221
*768 FILLER_0_26_233
*769 FILLER_0_26_245
*770 FILLER_0_26_251
*771 FILLER_0_26_253
*772 FILLER_0_26_265
*773 FILLER_0_26_27
*774 FILLER_0_26_277
*775 FILLER_0_26_289
*776 FILLER_0_26_29
*777 FILLER_0_26_3
*778 FILLER_0_26_301
*779 FILLER_0_26_307
*780 FILLER_0_26_309
*781 FILLER_0_26_321
*782 FILLER_0_26_333
*783 FILLER_0_26_41
*784 FILLER_0_26_53
*785 FILLER_0_26_65
*786 FILLER_0_26_77
*787 FILLER_0_26_83
*788 FILLER_0_26_85
*789 FILLER_0_26_97
*790 FILLER_0_27_105
*791 FILLER_0_27_111
*792 FILLER_0_27_113
*793 FILLER_0_27_125
*794 FILLER_0_27_137
*795 FILLER_0_27_149
*796 FILLER_0_27_15
*797 FILLER_0_27_161
*798 FILLER_0_27_167
*799 FILLER_0_27_169
*800 FILLER_0_27_181
*801 FILLER_0_27_193
*802 FILLER_0_27_205
*803 FILLER_0_27_217
*804 FILLER_0_27_223
*805 FILLER_0_27_225
*806 FILLER_0_27_237
*807 FILLER_0_27_249
*808 FILLER_0_27_261
*809 FILLER_0_27_27
*810 FILLER_0_27_273
*811 FILLER_0_27_279
*812 FILLER_0_27_281
*813 FILLER_0_27_293
*814 FILLER_0_27_3
*815 FILLER_0_27_305
*816 FILLER_0_27_317
*817 FILLER_0_27_329
*818 FILLER_0_27_39
*819 FILLER_0_27_51
*820 FILLER_0_27_55
*821 FILLER_0_27_57
*822 FILLER_0_27_69
*823 FILLER_0_27_81
*824 FILLER_0_27_93
*825 FILLER_0_28_109
*826 FILLER_0_28_121
*827 FILLER_0_28_133
*828 FILLER_0_28_139
*829 FILLER_0_28_141
*830 FILLER_0_28_15
*831 FILLER_0_28_153
*832 FILLER_0_28_165
*833 FILLER_0_28_177
*834 FILLER_0_28_189
*835 FILLER_0_28_195
*836 FILLER_0_28_197
*837 FILLER_0_28_209
*838 FILLER_0_28_221
*839 FILLER_0_28_233
*840 FILLER_0_28_245
*841 FILLER_0_28_251
*842 FILLER_0_28_253
*843 FILLER_0_28_265
*844 FILLER_0_28_27
*845 FILLER_0_28_277
*846 FILLER_0_28_289
*847 FILLER_0_28_29
*848 FILLER_0_28_3
*849 FILLER_0_28_301
*850 FILLER_0_28_307
*851 FILLER_0_28_309
*852 FILLER_0_28_321
*853 FILLER_0_28_333
*854 FILLER_0_28_41
*855 FILLER_0_28_53
*856 FILLER_0_28_65
*857 FILLER_0_28_77
*858 FILLER_0_28_83
*859 FILLER_0_28_85
*860 FILLER_0_28_97
*861 FILLER_0_29_105
*862 FILLER_0_29_111
*863 FILLER_0_29_113
*864 FILLER_0_29_125
*865 FILLER_0_29_137
*866 FILLER_0_29_149
*867 FILLER_0_29_15
*868 FILLER_0_29_161
*869 FILLER_0_29_167
*870 FILLER_0_29_169
*871 FILLER_0_29_181
*872 FILLER_0_29_193
*873 FILLER_0_29_205
*874 FILLER_0_29_217
*875 FILLER_0_29_223
*876 FILLER_0_29_225
*877 FILLER_0_29_237
*878 FILLER_0_29_249
*879 FILLER_0_29_261
*880 FILLER_0_29_27
*881 FILLER_0_29_273
*882 FILLER_0_29_279
*883 FILLER_0_29_281
*884 FILLER_0_29_293
*885 FILLER_0_29_3
*886 FILLER_0_29_305
*887 FILLER_0_29_317
*888 FILLER_0_29_329
*889 FILLER_0_29_39
*890 FILLER_0_29_51
*891 FILLER_0_29_55
*892 FILLER_0_29_57
*893 FILLER_0_29_69
*894 FILLER_0_29_81
*895 FILLER_0_29_93
*896 FILLER_0_2_109
*897 FILLER_0_2_121
*898 FILLER_0_2_133
*899 FILLER_0_2_139
*900 FILLER_0_2_141
*901 FILLER_0_2_15
*902 FILLER_0_2_153
*903 FILLER_0_2_165
*904 FILLER_0_2_177
*905 FILLER_0_2_189
*906 FILLER_0_2_195
*907 FILLER_0_2_197
*908 FILLER_0_2_209
*909 FILLER_0_2_221
*910 FILLER_0_2_233
*911 FILLER_0_2_245
*912 FILLER_0_2_251
*913 FILLER_0_2_253
*914 FILLER_0_2_265
*915 FILLER_0_2_27
*916 FILLER_0_2_277
*917 FILLER_0_2_289
*918 FILLER_0_2_29
*919 FILLER_0_2_3
*920 FILLER_0_2_301
*921 FILLER_0_2_307
*922 FILLER_0_2_309
*923 FILLER_0_2_321
*924 FILLER_0_2_333
*925 FILLER_0_2_41
*926 FILLER_0_2_53
*927 FILLER_0_2_65
*928 FILLER_0_2_77
*929 FILLER_0_2_83
*930 FILLER_0_2_85
*931 FILLER_0_2_97
*932 FILLER_0_30_109
*933 FILLER_0_30_121
*934 FILLER_0_30_133
*935 FILLER_0_30_139
*936 FILLER_0_30_141
*937 FILLER_0_30_15
*938 FILLER_0_30_153
*939 FILLER_0_30_165
*940 FILLER_0_30_177
*941 FILLER_0_30_189
*942 FILLER_0_30_195
*943 FILLER_0_30_197
*944 FILLER_0_30_209
*945 FILLER_0_30_221
*946 FILLER_0_30_233
*947 FILLER_0_30_245
*948 FILLER_0_30_251
*949 FILLER_0_30_253
*950 FILLER_0_30_265
*951 FILLER_0_30_27
*952 FILLER_0_30_277
*953 FILLER_0_30_289
*954 FILLER_0_30_29
*955 FILLER_0_30_3
*956 FILLER_0_30_301
*957 FILLER_0_30_307
*958 FILLER_0_30_309
*959 FILLER_0_30_321
*960 FILLER_0_30_333
*961 FILLER_0_30_41
*962 FILLER_0_30_53
*963 FILLER_0_30_65
*964 FILLER_0_30_77
*965 FILLER_0_30_83
*966 FILLER_0_30_85
*967 FILLER_0_30_97
*968 FILLER_0_31_105
*969 FILLER_0_31_111
*970 FILLER_0_31_113
*971 FILLER_0_31_125
*972 FILLER_0_31_137
*973 FILLER_0_31_149
*974 FILLER_0_31_15
*975 FILLER_0_31_161
*976 FILLER_0_31_167
*977 FILLER_0_31_169
*978 FILLER_0_31_181
*979 FILLER_0_31_193
*980 FILLER_0_31_205
*981 FILLER_0_31_217
*982 FILLER_0_31_223
*983 FILLER_0_31_225
*984 FILLER_0_31_237
*985 FILLER_0_31_249
*986 FILLER_0_31_261
*987 FILLER_0_31_27
*988 FILLER_0_31_273
*989 FILLER_0_31_279
*990 FILLER_0_31_281
*991 FILLER_0_31_293
*992 FILLER_0_31_3
*993 FILLER_0_31_305
*994 FILLER_0_31_317
*995 FILLER_0_31_329
*996 FILLER_0_31_39
*997 FILLER_0_31_51
*998 FILLER_0_31_55
*999 FILLER_0_31_57
*1000 FILLER_0_31_69
*1001 FILLER_0_31_81
*1002 FILLER_0_31_93
*1003 FILLER_0_32_109
*1004 FILLER_0_32_121
*1005 FILLER_0_32_133
*1006 FILLER_0_32_139
*1007 FILLER_0_32_141
*1008 FILLER_0_32_15
*1009 FILLER_0_32_153
*1010 FILLER_0_32_165
*1011 FILLER_0_32_177
*1012 FILLER_0_32_189
*1013 FILLER_0_32_195
*1014 FILLER_0_32_197
*1015 FILLER_0_32_209
*1016 FILLER_0_32_221
*1017 FILLER_0_32_233
*1018 FILLER_0_32_245
*1019 FILLER_0_32_251
*1020 FILLER_0_32_253
*1021 FILLER_0_32_265
*1022 FILLER_0_32_27
*1023 FILLER_0_32_277
*1024 FILLER_0_32_289
*1025 FILLER_0_32_29
*1026 FILLER_0_32_3
*1027 FILLER_0_32_301
*1028 FILLER_0_32_307
*1029 FILLER_0_32_309
*1030 FILLER_0_32_321
*1031 FILLER_0_32_333
*1032 FILLER_0_32_41
*1033 FILLER_0_32_53
*1034 FILLER_0_32_65
*1035 FILLER_0_32_77
*1036 FILLER_0_32_83
*1037 FILLER_0_32_85
*1038 FILLER_0_32_97
*1039 FILLER_0_33_105
*1040 FILLER_0_33_111
*1041 FILLER_0_33_113
*1042 FILLER_0_33_125
*1043 FILLER_0_33_137
*1044 FILLER_0_33_149
*1045 FILLER_0_33_15
*1046 FILLER_0_33_161
*1047 FILLER_0_33_167
*1048 FILLER_0_33_169
*1049 FILLER_0_33_181
*1050 FILLER_0_33_193
*1051 FILLER_0_33_205
*1052 FILLER_0_33_217
*1053 FILLER_0_33_222
*1054 FILLER_0_33_225
*1055 FILLER_0_33_237
*1056 FILLER_0_33_241
*1057 FILLER_0_33_253
*1058 FILLER_0_33_265
*1059 FILLER_0_33_27
*1060 FILLER_0_33_277
*1061 FILLER_0_33_281
*1062 FILLER_0_33_293
*1063 FILLER_0_33_3
*1064 FILLER_0_33_305
*1065 FILLER_0_33_317
*1066 FILLER_0_33_329
*1067 FILLER_0_33_39
*1068 FILLER_0_33_51
*1069 FILLER_0_33_55
*1070 FILLER_0_33_57
*1071 FILLER_0_33_69
*1072 FILLER_0_33_81
*1073 FILLER_0_33_93
*1074 FILLER_0_34_109
*1075 FILLER_0_34_121
*1076 FILLER_0_34_133
*1077 FILLER_0_34_139
*1078 FILLER_0_34_141
*1079 FILLER_0_34_15
*1080 FILLER_0_34_153
*1081 FILLER_0_34_165
*1082 FILLER_0_34_177
*1083 FILLER_0_34_186
*1084 FILLER_0_34_194
*1085 FILLER_0_34_197
*1086 FILLER_0_34_209
*1087 FILLER_0_34_230
*1088 FILLER_0_34_253
*1089 FILLER_0_34_265
*1090 FILLER_0_34_27
*1091 FILLER_0_34_278
*1092 FILLER_0_34_29
*1093 FILLER_0_34_290
*1094 FILLER_0_34_3
*1095 FILLER_0_34_302
*1096 FILLER_0_34_309
*1097 FILLER_0_34_321
*1098 FILLER_0_34_333
*1099 FILLER_0_34_41
*1100 FILLER_0_34_53
*1101 FILLER_0_34_65
*1102 FILLER_0_34_77
*1103 FILLER_0_34_83
*1104 FILLER_0_34_85
*1105 FILLER_0_34_97
*1106 FILLER_0_35_105
*1107 FILLER_0_35_111
*1108 FILLER_0_35_113
*1109 FILLER_0_35_125
*1110 FILLER_0_35_137
*1111 FILLER_0_35_149
*1112 FILLER_0_35_15
*1113 FILLER_0_35_161
*1114 FILLER_0_35_167
*1115 FILLER_0_35_169
*1116 FILLER_0_35_173
*1117 FILLER_0_35_198
*1118 FILLER_0_35_202
*1119 FILLER_0_35_209
*1120 FILLER_0_35_221
*1121 FILLER_0_35_225
*1122 FILLER_0_35_234
*1123 FILLER_0_35_246
*1124 FILLER_0_35_27
*1125 FILLER_0_35_270
*1126 FILLER_0_35_276
*1127 FILLER_0_35_294
*1128 FILLER_0_35_3
*1129 FILLER_0_35_306
*1130 FILLER_0_35_318
*1131 FILLER_0_35_330
*1132 FILLER_0_35_334
*1133 FILLER_0_35_39
*1134 FILLER_0_35_51
*1135 FILLER_0_35_55
*1136 FILLER_0_35_57
*1137 FILLER_0_35_69
*1138 FILLER_0_35_81
*1139 FILLER_0_35_93
*1140 FILLER_0_36_109
*1141 FILLER_0_36_121
*1142 FILLER_0_36_133
*1143 FILLER_0_36_139
*1144 FILLER_0_36_141
*1145 FILLER_0_36_15
*1146 FILLER_0_36_153
*1147 FILLER_0_36_165
*1148 FILLER_0_36_177
*1149 FILLER_0_36_195
*1150 FILLER_0_36_197
*1151 FILLER_0_36_209
*1152 FILLER_0_36_215
*1153 FILLER_0_36_220
*1154 FILLER_0_36_228
*1155 FILLER_0_36_232
*1156 FILLER_0_36_247
*1157 FILLER_0_36_251
*1158 FILLER_0_36_266
*1159 FILLER_0_36_27
*1160 FILLER_0_36_272
*1161 FILLER_0_36_278
*1162 FILLER_0_36_282
*1163 FILLER_0_36_29
*1164 FILLER_0_36_290
*1165 FILLER_0_36_299
*1166 FILLER_0_36_3
*1167 FILLER_0_36_307
*1168 FILLER_0_36_309
*1169 FILLER_0_36_321
*1170 FILLER_0_36_333
*1171 FILLER_0_36_41
*1172 FILLER_0_36_53
*1173 FILLER_0_36_65
*1174 FILLER_0_36_77
*1175 FILLER_0_36_83
*1176 FILLER_0_36_85
*1177 FILLER_0_36_97
*1178 FILLER_0_37_105
*1179 FILLER_0_37_111
*1180 FILLER_0_37_113
*1181 FILLER_0_37_125
*1182 FILLER_0_37_137
*1183 FILLER_0_37_15
*1184 FILLER_0_37_155
*1185 FILLER_0_37_167
*1186 FILLER_0_37_169
*1187 FILLER_0_37_177
*1188 FILLER_0_37_184
*1189 FILLER_0_37_207
*1190 FILLER_0_37_223
*1191 FILLER_0_37_234
*1192 FILLER_0_37_244
*1193 FILLER_0_37_27
*1194 FILLER_0_37_273
*1195 FILLER_0_37_279
*1196 FILLER_0_37_284
*1197 FILLER_0_37_297
*1198 FILLER_0_37_3
*1199 FILLER_0_37_309
*1200 FILLER_0_37_321
*1201 FILLER_0_37_333
*1202 FILLER_0_37_39
*1203 FILLER_0_37_51
*1204 FILLER_0_37_55
*1205 FILLER_0_37_57
*1206 FILLER_0_37_69
*1207 FILLER_0_37_81
*1208 FILLER_0_37_93
*1209 FILLER_0_38_10
*1210 FILLER_0_38_102
*1211 FILLER_0_38_106
*1212 FILLER_0_38_110
*1213 FILLER_0_38_113
*1214 FILLER_0_38_118
*1215 FILLER_0_38_122
*1216 FILLER_0_38_126
*1217 FILLER_0_38_132
*1218 FILLER_0_38_137
*1219 FILLER_0_38_14
*1220 FILLER_0_38_141
*1221 FILLER_0_38_153
*1222 FILLER_0_38_157
*1223 FILLER_0_38_167
*1224 FILLER_0_38_169
*1225 FILLER_0_38_18
*1226 FILLER_0_38_181
*1227 FILLER_0_38_193
*1228 FILLER_0_38_197
*1229 FILLER_0_38_209
*1230 FILLER_0_38_22
*1231 FILLER_0_38_225
*1232 FILLER_0_38_279
*1233 FILLER_0_38_297
*1234 FILLER_0_38_302
*1235 FILLER_0_38_312
*1236 FILLER_0_38_318
*1237 FILLER_0_38_32
*1238 FILLER_0_38_330
*1239 FILLER_0_38_334
*1240 FILLER_0_38_38
*1241 FILLER_0_38_42
*1242 FILLER_0_38_46
*1243 FILLER_0_38_50
*1244 FILLER_0_38_54
*1245 FILLER_0_38_57
*1246 FILLER_0_38_6
*1247 FILLER_0_38_62
*1248 FILLER_0_38_66
*1249 FILLER_0_38_70
*1250 FILLER_0_38_74
*1251 FILLER_0_38_78
*1252 FILLER_0_38_88
*1253 FILLER_0_38_94
*1254 FILLER_0_38_98
*1255 FILLER_0_3_105
*1256 FILLER_0_3_111
*1257 FILLER_0_3_113
*1258 FILLER_0_3_125
*1259 FILLER_0_3_137
*1260 FILLER_0_3_149
*1261 FILLER_0_3_15
*1262 FILLER_0_3_161
*1263 FILLER_0_3_167
*1264 FILLER_0_3_169
*1265 FILLER_0_3_181
*1266 FILLER_0_3_193
*1267 FILLER_0_3_205
*1268 FILLER_0_3_217
*1269 FILLER_0_3_223
*1270 FILLER_0_3_225
*1271 FILLER_0_3_237
*1272 FILLER_0_3_249
*1273 FILLER_0_3_261
*1274 FILLER_0_3_27
*1275 FILLER_0_3_273
*1276 FILLER_0_3_279
*1277 FILLER_0_3_281
*1278 FILLER_0_3_293
*1279 FILLER_0_3_3
*1280 FILLER_0_3_305
*1281 FILLER_0_3_317
*1282 FILLER_0_3_329
*1283 FILLER_0_3_39
*1284 FILLER_0_3_51
*1285 FILLER_0_3_55
*1286 FILLER_0_3_57
*1287 FILLER_0_3_69
*1288 FILLER_0_3_81
*1289 FILLER_0_3_93
*1290 FILLER_0_4_109
*1291 FILLER_0_4_121
*1292 FILLER_0_4_133
*1293 FILLER_0_4_139
*1294 FILLER_0_4_141
*1295 FILLER_0_4_15
*1296 FILLER_0_4_153
*1297 FILLER_0_4_165
*1298 FILLER_0_4_177
*1299 FILLER_0_4_189
*1300 FILLER_0_4_195
*1301 FILLER_0_4_197
*1302 FILLER_0_4_209
*1303 FILLER_0_4_221
*1304 FILLER_0_4_233
*1305 FILLER_0_4_245
*1306 FILLER_0_4_251
*1307 FILLER_0_4_253
*1308 FILLER_0_4_265
*1309 FILLER_0_4_27
*1310 FILLER_0_4_277
*1311 FILLER_0_4_289
*1312 FILLER_0_4_29
*1313 FILLER_0_4_3
*1314 FILLER_0_4_301
*1315 FILLER_0_4_307
*1316 FILLER_0_4_309
*1317 FILLER_0_4_321
*1318 FILLER_0_4_333
*1319 FILLER_0_4_41
*1320 FILLER_0_4_53
*1321 FILLER_0_4_65
*1322 FILLER_0_4_77
*1323 FILLER_0_4_83
*1324 FILLER_0_4_85
*1325 FILLER_0_4_97
*1326 FILLER_0_5_105
*1327 FILLER_0_5_111
*1328 FILLER_0_5_113
*1329 FILLER_0_5_125
*1330 FILLER_0_5_137
*1331 FILLER_0_5_149
*1332 FILLER_0_5_15
*1333 FILLER_0_5_161
*1334 FILLER_0_5_167
*1335 FILLER_0_5_169
*1336 FILLER_0_5_181
*1337 FILLER_0_5_193
*1338 FILLER_0_5_205
*1339 FILLER_0_5_217
*1340 FILLER_0_5_223
*1341 FILLER_0_5_225
*1342 FILLER_0_5_237
*1343 FILLER_0_5_249
*1344 FILLER_0_5_261
*1345 FILLER_0_5_27
*1346 FILLER_0_5_273
*1347 FILLER_0_5_279
*1348 FILLER_0_5_281
*1349 FILLER_0_5_293
*1350 FILLER_0_5_3
*1351 FILLER_0_5_305
*1352 FILLER_0_5_317
*1353 FILLER_0_5_329
*1354 FILLER_0_5_39
*1355 FILLER_0_5_51
*1356 FILLER_0_5_55
*1357 FILLER_0_5_57
*1358 FILLER_0_5_69
*1359 FILLER_0_5_81
*1360 FILLER_0_5_93
*1361 FILLER_0_6_109
*1362 FILLER_0_6_121
*1363 FILLER_0_6_133
*1364 FILLER_0_6_139
*1365 FILLER_0_6_141
*1366 FILLER_0_6_15
*1367 FILLER_0_6_153
*1368 FILLER_0_6_165
*1369 FILLER_0_6_177
*1370 FILLER_0_6_189
*1371 FILLER_0_6_195
*1372 FILLER_0_6_197
*1373 FILLER_0_6_209
*1374 FILLER_0_6_221
*1375 FILLER_0_6_233
*1376 FILLER_0_6_245
*1377 FILLER_0_6_251
*1378 FILLER_0_6_253
*1379 FILLER_0_6_265
*1380 FILLER_0_6_27
*1381 FILLER_0_6_277
*1382 FILLER_0_6_289
*1383 FILLER_0_6_29
*1384 FILLER_0_6_3
*1385 FILLER_0_6_301
*1386 FILLER_0_6_307
*1387 FILLER_0_6_309
*1388 FILLER_0_6_321
*1389 FILLER_0_6_333
*1390 FILLER_0_6_41
*1391 FILLER_0_6_53
*1392 FILLER_0_6_65
*1393 FILLER_0_6_77
*1394 FILLER_0_6_83
*1395 FILLER_0_6_85
*1396 FILLER_0_6_97
*1397 FILLER_0_7_105
*1398 FILLER_0_7_111
*1399 FILLER_0_7_113
*1400 FILLER_0_7_125
*1401 FILLER_0_7_137
*1402 FILLER_0_7_149
*1403 FILLER_0_7_15
*1404 FILLER_0_7_161
*1405 FILLER_0_7_167
*1406 FILLER_0_7_169
*1407 FILLER_0_7_181
*1408 FILLER_0_7_193
*1409 FILLER_0_7_205
*1410 FILLER_0_7_217
*1411 FILLER_0_7_223
*1412 FILLER_0_7_225
*1413 FILLER_0_7_237
*1414 FILLER_0_7_249
*1415 FILLER_0_7_261
*1416 FILLER_0_7_27
*1417 FILLER_0_7_273
*1418 FILLER_0_7_279
*1419 FILLER_0_7_281
*1420 FILLER_0_7_293
*1421 FILLER_0_7_3
*1422 FILLER_0_7_305
*1423 FILLER_0_7_317
*1424 FILLER_0_7_329
*1425 FILLER_0_7_39
*1426 FILLER_0_7_51
*1427 FILLER_0_7_55
*1428 FILLER_0_7_57
*1429 FILLER_0_7_69
*1430 FILLER_0_7_81
*1431 FILLER_0_7_93
*1432 FILLER_0_8_109
*1433 FILLER_0_8_121
*1434 FILLER_0_8_133
*1435 FILLER_0_8_139
*1436 FILLER_0_8_141
*1437 FILLER_0_8_15
*1438 FILLER_0_8_153
*1439 FILLER_0_8_165
*1440 FILLER_0_8_177
*1441 FILLER_0_8_189
*1442 FILLER_0_8_195
*1443 FILLER_0_8_197
*1444 FILLER_0_8_209
*1445 FILLER_0_8_221
*1446 FILLER_0_8_233
*1447 FILLER_0_8_245
*1448 FILLER_0_8_251
*1449 FILLER_0_8_253
*1450 FILLER_0_8_265
*1451 FILLER_0_8_27
*1452 FILLER_0_8_277
*1453 FILLER_0_8_289
*1454 FILLER_0_8_29
*1455 FILLER_0_8_3
*1456 FILLER_0_8_301
*1457 FILLER_0_8_307
*1458 FILLER_0_8_309
*1459 FILLER_0_8_321
*1460 FILLER_0_8_333
*1461 FILLER_0_8_41
*1462 FILLER_0_8_53
*1463 FILLER_0_8_65
*1464 FILLER_0_8_77
*1465 FILLER_0_8_83
*1466 FILLER_0_8_85
*1467 FILLER_0_8_97
*1468 FILLER_0_9_105
*1469 FILLER_0_9_111
*1470 FILLER_0_9_113
*1471 FILLER_0_9_125
*1472 FILLER_0_9_137
*1473 FILLER_0_9_149
*1474 FILLER_0_9_15
*1475 FILLER_0_9_161
*1476 FILLER_0_9_167
*1477 FILLER_0_9_169
*1478 FILLER_0_9_181
*1479 FILLER_0_9_193
*1480 FILLER_0_9_205
*1481 FILLER_0_9_217
*1482 FILLER_0_9_223