*SPEF "ieee 1481-1999"
*DESIGN "tt_um_wokwi_395414987024660481"
*DATE "07:51:17 Thursday April 18, 2024"
*VENDOR "The OpenROAD Project"
*PROGRAM "OpenROAD"
*VERSION "0889970d1790a2617e69f253221b8bd7626e51dc"
*DESIGN_FLOW "NAME_SCOPE LOCAL" "PIN_CAP NONE"
*DIVIDER /
*DELIMITER :
*BUS_DELIMITER []
*T_UNIT 1 NS
*C_UNIT 1 PF
*R_UNIT 1 OHM
*L_UNIT 1 HENRY

*NAME_MAP
*3 clk
*4 ena
*5 rst_n
*6 ui_in[0]
*7 ui_in[1]
*8 ui_in[2]
*9 ui_in[3]
*10 ui_in[4]
*11 ui_in[5]
*12 ui_in[6]
*13 ui_in[7]
*14 uio_in[0]
*15 uio_in[1]
*16 uio_in[2]
*17 uio_in[3]
*18 uio_in[4]
*19 uio_in[5]
*20 uio_in[6]
*21 uio_in[7]
*22 net2
*23 net3
*24 net4
*25 net5
*26 net6
*27 net7
*28 net8
*29 net9
*30 net10
*31 net11
*32 net12
*33 net13
*34 net14
*35 net15
*36 net16
*37 net17
*38 uo_out[0]
*39 uo_out[1]
*40 uo_out[2]
*41 uo_out[3]
*42 uo_out[4]
*43 uo_out[5]
*44 uo_out[6]
*45 net18
*46 _00_
*47 _01_
*48 _02_
*49 _03_
*50 _04_
*51 _05_
*52 _06_
*53 _07_
*54 _08_
*55 _09_
*56 _10_
*57 _11_
*58 _12_
*59 _13_
*60 and1\.b
*61 clknet_0_clk
*62 clknet_1_0__leaf_clk
*63 clknet_1_1__leaf_clk
*64 flipflop1\.q
*65 flipflop2\.q
*66 flipflop3\.q
*67 flipflop4\.q
*68 flipflop5\.q
*69 net1
*70 net19
*71 net20
*72 net21
*73 net22
*74 net23
*75 or1\.out
*76 or2\.out
*77 or3\.out
*78 or4\.out
*79 FILLER_0_0_109
*80 FILLER_0_0_113
*81 FILLER_0_0_125
*82 FILLER_0_0_137
*83 FILLER_0_0_141
*84 FILLER_0_0_15
*85 FILLER_0_0_153
*86 FILLER_0_0_165
*87 FILLER_0_0_169
*88 FILLER_0_0_181
*89 FILLER_0_0_193
*90 FILLER_0_0_197
*91 FILLER_0_0_209
*92 FILLER_0_0_221
*93 FILLER_0_0_225
*94 FILLER_0_0_237
*95 FILLER_0_0_249
*96 FILLER_0_0_253
*97 FILLER_0_0_265
*98 FILLER_0_0_27
*99 FILLER_0_0_277
*100 FILLER_0_0_281
*101 FILLER_0_0_29
*102 FILLER_0_0_293
*103 FILLER_0_0_3
*104 FILLER_0_0_305
*105 FILLER_0_0_309
*106 FILLER_0_0_321
*107 FILLER_0_0_333
*108 FILLER_0_0_41
*109 FILLER_0_0_53
*110 FILLER_0_0_57
*111 FILLER_0_0_69
*112 FILLER_0_0_81
*113 FILLER_0_0_85
*114 FILLER_0_0_97
*115 FILLER_0_10_109
*116 FILLER_0_10_121
*117 FILLER_0_10_133
*118 FILLER_0_10_139
*119 FILLER_0_10_141
*120 FILLER_0_10_15
*121 FILLER_0_10_153
*122 FILLER_0_10_165
*123 FILLER_0_10_177
*124 FILLER_0_10_189
*125 FILLER_0_10_195
*126 FILLER_0_10_197
*127 FILLER_0_10_209
*128 FILLER_0_10_221
*129 FILLER_0_10_233
*130 FILLER_0_10_245
*131 FILLER_0_10_251
*132 FILLER_0_10_253
*133 FILLER_0_10_265
*134 FILLER_0_10_27
*135 FILLER_0_10_277
*136 FILLER_0_10_289
*137 FILLER_0_10_29
*138 FILLER_0_10_3
*139 FILLER_0_10_301
*140 FILLER_0_10_307
*141 FILLER_0_10_309
*142 FILLER_0_10_321
*143 FILLER_0_10_333
*144 FILLER_0_10_41
*145 FILLER_0_10_53
*146 FILLER_0_10_65
*147 FILLER_0_10_77
*148 FILLER_0_10_83
*149 FILLER_0_10_85
*150 FILLER_0_10_97
*151 FILLER_0_11_105
*152 FILLER_0_11_111
*153 FILLER_0_11_113
*154 FILLER_0_11_125
*155 FILLER_0_11_137
*156 FILLER_0_11_149
*157 FILLER_0_11_15
*158 FILLER_0_11_161
*159 FILLER_0_11_167
*160 FILLER_0_11_169
*161 FILLER_0_11_181
*162 FILLER_0_11_193
*163 FILLER_0_11_205
*164 FILLER_0_11_217
*165 FILLER_0_11_223
*166 FILLER_0_11_225
*167 FILLER_0_11_237
*168 FILLER_0_11_249
*169 FILLER_0_11_261
*170 FILLER_0_11_27
*171 FILLER_0_11_273
*172 FILLER_0_11_279
*173 FILLER_0_11_281
*174 FILLER_0_11_293
*175 FILLER_0_11_3
*176 FILLER_0_11_305
*177 FILLER_0_11_317
*178 FILLER_0_11_329
*179 FILLER_0_11_39
*180 FILLER_0_11_51
*181 FILLER_0_11_55
*182 FILLER_0_11_57
*183 FILLER_0_11_69
*184 FILLER_0_11_81
*185 FILLER_0_11_93
*186 FILLER_0_12_109
*187 FILLER_0_12_121
*188 FILLER_0_12_133
*189 FILLER_0_12_139
*190 FILLER_0_12_141
*191 FILLER_0_12_15
*192 FILLER_0_12_153
*193 FILLER_0_12_165
*194 FILLER_0_12_177
*195 FILLER_0_12_189
*196 FILLER_0_12_195
*197 FILLER_0_12_197
*198 FILLER_0_12_209
*199 FILLER_0_12_221
*200 FILLER_0_12_233
*201 FILLER_0_12_245
*202 FILLER_0_12_251
*203 FILLER_0_12_253
*204 FILLER_0_12_265
*205 FILLER_0_12_27
*206 FILLER_0_12_277
*207 FILLER_0_12_289
*208 FILLER_0_12_29
*209 FILLER_0_12_3
*210 FILLER_0_12_301
*211 FILLER_0_12_307
*212 FILLER_0_12_309
*213 FILLER_0_12_321
*214 FILLER_0_12_333
*215 FILLER_0_12_41
*216 FILLER_0_12_53
*217 FILLER_0_12_65
*218 FILLER_0_12_77
*219 FILLER_0_12_83
*220 FILLER_0_12_85
*221 FILLER_0_12_97
*222 FILLER_0_13_105
*223 FILLER_0_13_111
*224 FILLER_0_13_113
*225 FILLER_0_13_125
*226 FILLER_0_13_137
*227 FILLER_0_13_149
*228 FILLER_0_13_15
*229 FILLER_0_13_161
*230 FILLER_0_13_167
*231 FILLER_0_13_169
*232 FILLER_0_13_181
*233 FILLER_0_13_193
*234 FILLER_0_13_205
*235 FILLER_0_13_217
*236 FILLER_0_13_223
*237 FILLER_0_13_225
*238 FILLER_0_13_237
*239 FILLER_0_13_249
*240 FILLER_0_13_261
*241 FILLER_0_13_27
*242 FILLER_0_13_273
*243 FILLER_0_13_279
*244 FILLER_0_13_281
*245 FILLER_0_13_293
*246 FILLER_0_13_3
*247 FILLER_0_13_305
*248 FILLER_0_13_317
*249 FILLER_0_13_329
*250 FILLER_0_13_39
*251 FILLER_0_13_51
*252 FILLER_0_13_55
*253 FILLER_0_13_57
*254 FILLER_0_13_69
*255 FILLER_0_13_81
*256 FILLER_0_13_93
*257 FILLER_0_14_109
*258 FILLER_0_14_121
*259 FILLER_0_14_133
*260 FILLER_0_14_139
*261 FILLER_0_14_141
*262 FILLER_0_14_15
*263 FILLER_0_14_153
*264 FILLER_0_14_165
*265 FILLER_0_14_177
*266 FILLER_0_14_189
*267 FILLER_0_14_195
*268 FILLER_0_14_197
*269 FILLER_0_14_209
*270 FILLER_0_14_221
*271 FILLER_0_14_233
*272 FILLER_0_14_245
*273 FILLER_0_14_251
*274 FILLER_0_14_253
*275 FILLER_0_14_265
*276 FILLER_0_14_27
*277 FILLER_0_14_277
*278 FILLER_0_14_289
*279 FILLER_0_14_29
*280 FILLER_0_14_3
*281 FILLER_0_14_301
*282 FILLER_0_14_307
*283 FILLER_0_14_309
*284 FILLER_0_14_321
*285 FILLER_0_14_333
*286 FILLER_0_14_41
*287 FILLER_0_14_53
*288 FILLER_0_14_65
*289 FILLER_0_14_77
*290 FILLER_0_14_83
*291 FILLER_0_14_85
*292 FILLER_0_14_97
*293 FILLER_0_15_105
*294 FILLER_0_15_111
*295 FILLER_0_15_113
*296 FILLER_0_15_125
*297 FILLER_0_15_137
*298 FILLER_0_15_149
*299 FILLER_0_15_15
*300 FILLER_0_15_161
*301 FILLER_0_15_167
*302 FILLER_0_15_169
*303 FILLER_0_15_181
*304 FILLER_0_15_193
*305 FILLER_0_15_205
*306 FILLER_0_15_217
*307 FILLER_0_15_223
*308 FILLER_0_15_225
*309 FILLER_0_15_237
*310 FILLER_0_15_249
*311 FILLER_0_15_261
*312 FILLER_0_15_27
*313 FILLER_0_15_273
*314 FILLER_0_15_279
*315 FILLER_0_15_281
*316 FILLER_0_15_293
*317 FILLER_0_15_3
*318 FILLER_0_15_305
*319 FILLER_0_15_317
*320 FILLER_0_15_329
*321 FILLER_0_15_39
*322 FILLER_0_15_51
*323 FILLER_0_15_55
*324 FILLER_0_15_57
*325 FILLER_0_15_69
*326 FILLER_0_15_81
*327 FILLER_0_15_93
*328 FILLER_0_16_109
*329 FILLER_0_16_121
*330 FILLER_0_16_133
*331 FILLER_0_16_139
*332 FILLER_0_16_141
*333 FILLER_0_16_15
*334 FILLER_0_16_153
*335 FILLER_0_16_165
*336 FILLER_0_16_177
*337 FILLER_0_16_189
*338 FILLER_0_16_195
*339 FILLER_0_16_197
*340 FILLER_0_16_209
*341 FILLER_0_16_221
*342 FILLER_0_16_233
*343 FILLER_0_16_245
*344 FILLER_0_16_251
*345 FILLER_0_16_253
*346 FILLER_0_16_265
*347 FILLER_0_16_27
*348 FILLER_0_16_277
*349 FILLER_0_16_289
*350 FILLER_0_16_29
*351 FILLER_0_16_3
*352 FILLER_0_16_301
*353 FILLER_0_16_307
*354 FILLER_0_16_309
*355 FILLER_0_16_321
*356 FILLER_0_16_333
*357 FILLER_0_16_41
*358 FILLER_0_16_53
*359 FILLER_0_16_65
*360 FILLER_0_16_77
*361 FILLER_0_16_83
*362 FILLER_0_16_85
*363 FILLER_0_16_97
*364 FILLER_0_17_105
*365 FILLER_0_17_111
*366 FILLER_0_17_113
*367 FILLER_0_17_125
*368 FILLER_0_17_137
*369 FILLER_0_17_149
*370 FILLER_0_17_15
*371 FILLER_0_17_161
*372 FILLER_0_17_167
*373 FILLER_0_17_169
*374 FILLER_0_17_181
*375 FILLER_0_17_193
*376 FILLER_0_17_205
*377 FILLER_0_17_217
*378 FILLER_0_17_223
*379 FILLER_0_17_225
*380 FILLER_0_17_237
*381 FILLER_0_17_249
*382 FILLER_0_17_261
*383 FILLER_0_17_27
*384 FILLER_0_17_273
*385 FILLER_0_17_279
*386 FILLER_0_17_281
*387 FILLER_0_17_293
*388 FILLER_0_17_3
*389 FILLER_0_17_305
*390 FILLER_0_17_317
*391 FILLER_0_17_329
*392 FILLER_0_17_39
*393 FILLER_0_17_51
*394 FILLER_0_17_55
*395 FILLER_0_17_57
*396 FILLER_0_17_69
*397 FILLER_0_17_81
*398 FILLER_0_17_93
*399 FILLER_0_18_109
*400 FILLER_0_18_121
*401 FILLER_0_18_133
*402 FILLER_0_18_139
*403 FILLER_0_18_141
*404 FILLER_0_18_15
*405 FILLER_0_18_153
*406 FILLER_0_18_165
*407 FILLER_0_18_177
*408 FILLER_0_18_189
*409 FILLER_0_18_195
*410 FILLER_0_18_197
*411 FILLER_0_18_209
*412 FILLER_0_18_221
*413 FILLER_0_18_233
*414 FILLER_0_18_245
*415 FILLER_0_18_251
*416 FILLER_0_18_253
*417 FILLER_0_18_265
*418 FILLER_0_18_27
*419 FILLER_0_18_277
*420 FILLER_0_18_289
*421 FILLER_0_18_29
*422 FILLER_0_18_3
*423 FILLER_0_18_301
*424 FILLER_0_18_307
*425 FILLER_0_18_309
*426 FILLER_0_18_321
*427 FILLER_0_18_333
*428 FILLER_0_18_41
*429 FILLER_0_18_53
*430 FILLER_0_18_65
*431 FILLER_0_18_77
*432 FILLER_0_18_83
*433 FILLER_0_18_85
*434 FILLER_0_18_97
*435 FILLER_0_19_105
*436 FILLER_0_19_111
*437 FILLER_0_19_113
*438 FILLER_0_19_125
*439 FILLER_0_19_137
*440 FILLER_0_19_149
*441 FILLER_0_19_15
*442 FILLER_0_19_161
*443 FILLER_0_19_167
*444 FILLER_0_19_169
*445 FILLER_0_19_181
*446 FILLER_0_19_193
*447 FILLER_0_19_205
*448 FILLER_0_19_217
*449 FILLER_0_19_223
*450 FILLER_0_19_225
*451 FILLER_0_19_237
*452 FILLER_0_19_249
*453 FILLER_0_19_261
*454 FILLER_0_19_27
*455 FILLER_0_19_273
*456 FILLER_0_19_279
*457 FILLER_0_19_281
*458 FILLER_0_19_293
*459 FILLER_0_19_3
*460 FILLER_0_19_305
*461 FILLER_0_19_317
*462 FILLER_0_19_329
*463 FILLER_0_19_39
*464 FILLER_0_19_51
*465 FILLER_0_19_55
*466 FILLER_0_19_57
*467 FILLER_0_19_69
*468 FILLER_0_19_81
*469 FILLER_0_19_93
*470 FILLER_0_1_105
*471 FILLER_0_1_111
*472 FILLER_0_1_113
*473 FILLER_0_1_125
*474 FILLER_0_1_137
*475 FILLER_0_1_149
*476 FILLER_0_1_15
*477 FILLER_0_1_161
*478 FILLER_0_1_167
*479 FILLER_0_1_169
*480 FILLER_0_1_181
*481 FILLER_0_1_193
*482 FILLER_0_1_205
*483 FILLER_0_1_217
*484 FILLER_0_1_223
*485 FILLER_0_1_225
*486 FILLER_0_1_237
*487 FILLER_0_1_249
*488 FILLER_0_1_261
*489 FILLER_0_1_27
*490 FILLER_0_1_273
*491 FILLER_0_1_279
*492 FILLER_0_1_281
*493 FILLER_0_1_293
*494 FILLER_0_1_3
*495 FILLER_0_1_305
*496 FILLER_0_1_317
*497 FILLER_0_1_329
*498 FILLER_0_1_39
*499 FILLER_0_1_51
*500 FILLER_0_1_55
*501 FILLER_0_1_57
*502 FILLER_0_1_69
*503 FILLER_0_1_81
*504 FILLER_0_1_93
*505 FILLER_0_20_109
*506 FILLER_0_20_121
*507 FILLER_0_20_133
*508 FILLER_0_20_139
*509 FILLER_0_20_141
*510 FILLER_0_20_15
*511 FILLER_0_20_153
*512 FILLER_0_20_165
*513 FILLER_0_20_177
*514 FILLER_0_20_189
*515 FILLER_0_20_195
*516 FILLER_0_20_197
*517 FILLER_0_20_209
*518 FILLER_0_20_221
*519 FILLER_0_20_233
*520 FILLER_0_20_245
*521 FILLER_0_20_251
*522 FILLER_0_20_253
*523 FILLER_0_20_265
*524 FILLER_0_20_27
*525 FILLER_0_20_277
*526 FILLER_0_20_289
*527 FILLER_0_20_29
*528 FILLER_0_20_3
*529 FILLER_0_20_301
*530 FILLER_0_20_307
*531 FILLER_0_20_309
*532 FILLER_0_20_321
*533 FILLER_0_20_333
*534 FILLER_0_20_41
*535 FILLER_0_20_53
*536 FILLER_0_20_65
*537 FILLER_0_20_77
*538 FILLER_0_20_83
*539 FILLER_0_20_85
*540 FILLER_0_20_97
*541 FILLER_0_21_105
*542 FILLER_0_21_111
*543 FILLER_0_21_113
*544 FILLER_0_21_125
*545 FILLER_0_21_137
*546 FILLER_0_21_149
*547 FILLER_0_21_15
*548 FILLER_0_21_161
*549 FILLER_0_21_167
*550 FILLER_0_21_169
*551 FILLER_0_21_181
*552 FILLER_0_21_193
*553 FILLER_0_21_205
*554 FILLER_0_21_217
*555 FILLER_0_21_223
*556 FILLER_0_21_225
*557 FILLER_0_21_237
*558 FILLER_0_21_249
*559 FILLER_0_21_261
*560 FILLER_0_21_27
*561 FILLER_0_21_273
*562 FILLER_0_21_279
*563 FILLER_0_21_281
*564 FILLER_0_21_293
*565 FILLER_0_21_3
*566 FILLER_0_21_305
*567 FILLER_0_21_317
*568 FILLER_0_21_329
*569 FILLER_0_21_39
*570 FILLER_0_21_51
*571 FILLER_0_21_55
*572 FILLER_0_21_57
*573 FILLER_0_21_69
*574 FILLER_0_21_81
*575 FILLER_0_21_93
*576 FILLER_0_22_109
*577 FILLER_0_22_121
*578 FILLER_0_22_133
*579 FILLER_0_22_139
*580 FILLER_0_22_141
*581 FILLER_0_22_15
*582 FILLER_0_22_153
*583 FILLER_0_22_165
*584 FILLER_0_22_177
*585 FILLER_0_22_189
*586 FILLER_0_22_195
*587 FILLER_0_22_197
*588 FILLER_0_22_209
*589 FILLER_0_22_221
*590 FILLER_0_22_233
*591 FILLER_0_22_245
*592 FILLER_0_22_251
*593 FILLER_0_22_253
*594 FILLER_0_22_265
*595 FILLER_0_22_27
*596 FILLER_0_22_277
*597 FILLER_0_22_289
*598 FILLER_0_22_29
*599 FILLER_0_22_3
*600 FILLER_0_22_301
*601 FILLER_0_22_307
*602 FILLER_0_22_309
*603 FILLER_0_22_321
*604 FILLER_0_22_333
*605 FILLER_0_22_41
*606 FILLER_0_22_53
*607 FILLER_0_22_65
*608 FILLER_0_22_77
*609 FILLER_0_22_83
*610 FILLER_0_22_85
*611 FILLER_0_22_97
*612 FILLER_0_23_105
*613 FILLER_0_23_111
*614 FILLER_0_23_113
*615 FILLER_0_23_125
*616 FILLER_0_23_137
*617 FILLER_0_23_149
*618 FILLER_0_23_15
*619 FILLER_0_23_161
*620 FILLER_0_23_167
*621 FILLER_0_23_169
*622 FILLER_0_23_181
*623 FILLER_0_23_193
*624 FILLER_0_23_205
*625 FILLER_0_23_217
*626 FILLER_0_23_223
*627 FILLER_0_23_225
*628 FILLER_0_23_237
*629 FILLER_0_23_249
*630 FILLER_0_23_261
*631 FILLER_0_23_27
*632 FILLER_0_23_273
*633 FILLER_0_23_279
*634 FILLER_0_23_281
*635 FILLER_0_23_293
*636 FILLER_0_23_3
*637 FILLER_0_23_305
*638 FILLER_0_23_317
*639 FILLER_0_23_329
*640 FILLER_0_23_39
*641 FILLER_0_23_51
*642 FILLER_0_23_55
*643 FILLER_0_23_57
*644 FILLER_0_23_69
*645 FILLER_0_23_81
*646 FILLER_0_23_93
*647 FILLER_0_24_109
*648 FILLER_0_24_121
*649 FILLER_0_24_133
*650 FILLER_0_24_139
*651 FILLER_0_24_141
*652 FILLER_0_24_15
*653 FILLER_0_24_153
*654 FILLER_0_24_165
*655 FILLER_0_24_177
*656 FILLER_0_24_189
*657 FILLER_0_24_195
*658 FILLER_0_24_197
*659 FILLER_0_24_209
*660 FILLER_0_24_221
*661 FILLER_0_24_233
*662 FILLER_0_24_245
*663 FILLER_0_24_251
*664 FILLER_0_24_253
*665 FILLER_0_24_265
*666 FILLER_0_24_27
*667 FILLER_0_24_277
*668 FILLER_0_24_289
*669 FILLER_0_24_29
*670 FILLER_0_24_3
*671 FILLER_0_24_301
*672 FILLER_0_24_307
*673 FILLER_0_24_309
*674 FILLER_0_24_321
*675 FILLER_0_24_333
*676 FILLER_0_24_41
*677 FILLER_0_24_53
*678 FILLER_0_24_65
*679 FILLER_0_24_77
*680 FILLER_0_24_83
*681 FILLER_0_24_85
*682 FILLER_0_24_97
*683 FILLER_0_25_105
*684 FILLER_0_25_111
*685 FILLER_0_25_113
*686 FILLER_0_25_125
*687 FILLER_0_25_137
*688 FILLER_0_25_149
*689 FILLER_0_25_15
*690 FILLER_0_25_161
*691 FILLER_0_25_167
*692 FILLER_0_25_169
*693 FILLER_0_25_181
*694 FILLER_0_25_193
*695 FILLER_0_25_205
*696 FILLER_0_25_217
*697 FILLER_0_25_223
*698 FILLER_0_25_225
*699 FILLER_0_25_237
*700 FILLER_0_25_249
*701 FILLER_0_25_261
*702 FILLER_0_25_27
*703 FILLER_0_25_273
*704 FILLER_0_25_279
*705 FILLER_0_25_281
*706 FILLER_0_25_293
*707 FILLER_0_25_3
*708 FILLER_0_25_305
*709 FILLER_0_25_317
*710 FILLER_0_25_329
*711 FILLER_0_25_39
*712 FILLER_0_25_51
*713 FILLER_0_25_55
*714 FILLER_0_25_57
*715 FILLER_0_25_69
*716 FILLER_0_25_81
*717 FILLER_0_25_93
*718 FILLER_0_26_109
*719 FILLER_0_26_121
*720 FILLER_0_26_133
*721 FILLER_0_26_139
*722 FILLER_0_26_141
*723 FILLER_0_26_15
*724 FILLER_0_26_153
*725 FILLER_0_26_165
*726 FILLER_0_26_177
*727 FILLER_0_26_189
*728 FILLER_0_26_195
*729 FILLER_0_26_197
*730 FILLER_0_26_209
*731 FILLER_0_26_221
*732 FILLER_0_26_233
*733 FILLER_0_26_245
*734 FILLER_0_26_251
*735 FILLER_0_26_253
*736 FILLER_0_26_265
*737 FILLER_0_26_27
*738 FILLER_0_26_277
*739 FILLER_0_26_289
*740 FILLER_0_26_29
*741 FILLER_0_26_3
*742 FILLER_0_26_301
*743 FILLER_0_26_307
*744 FILLER_0_26_309
*745 FILLER_0_26_321
*746 FILLER_0_26_333
*747 FILLER_0_26_41
*748 FILLER_0_26_53
*749 FILLER_0_26_65
*750 FILLER_0_26_77
*751 FILLER_0_26_83
*752 FILLER_0_26_85
*753 FILLER_0_26_97
*754 FILLER_0_27_105
*755 FILLER_0_27_111
*756 FILLER_0_27_113
*757 FILLER_0_27_125
*758 FILLER_0_27_137
*759 FILLER_0_27_149
*760 FILLER_0_27_15
*761 FILLER_0_27_161
*762 FILLER_0_27_167
*763 FILLER_0_27_169
*764 FILLER_0_27_181
*765 FILLER_0_27_193
*766 FILLER_0_27_205
*767 FILLER_0_27_217
*768 FILLER_0_27_223
*769 FILLER_0_27_225
*770 FILLER_0_27_237
*771 FILLER_0_27_249
*772 FILLER_0_27_261
*773 FILLER_0_27_27
*774 FILLER_0_27_273
*775 FILLER_0_27_279
*776 FILLER_0_27_281
*777 FILLER_0_27_293
*778 FILLER_0_27_3
*779 FILLER_0_27_305
*780 FILLER_0_27_317
*781 FILLER_0_27_329
*782 FILLER_0_27_39
*783 FILLER_0_27_51
*784 FILLER_0_27_55
*785 FILLER_0_27_57
*786 FILLER_0_27_69
*787 FILLER_0_27_81
*788 FILLER_0_27_93
*789 FILLER_0_28_109
*790 FILLER_0_28_121
*791 FILLER_0_28_133
*792 FILLER_0_28_139
*793 FILLER_0_28_141
*794 FILLER_0_28_15
*795 FILLER_0_28_153
*796 FILLER_0_28_165
*797 FILLER_0_28_177
*798 FILLER_0_28_189
*799 FILLER_0_28_195
*800 FILLER_0_28_197
*801 FILLER_0_28_209
*802 FILLER_0_28_221
*803 FILLER_0_28_233
*804 FILLER_0_28_245
*805 FILLER_0_28_251
*806 FILLER_0_28_253
*807 FILLER_0_28_265
*808 FILLER_0_28_27
*809 FILLER_0_28_277
*810 FILLER_0_28_289
*811 FILLER_0_28_29
*812 FILLER_0_28_3
*813 FILLER_0_28_301
*814 FILLER_0_28_307
*815 FILLER_0_28_309
*816 FILLER_0_28_321
*817 FILLER_0_28_333
*818 FILLER_0_28_41
*819 FILLER_0_28_53
*820 FILLER_0_28_65
*821 FILLER_0_28_77
*822 FILLER_0_28_83
*823 FILLER_0_28_85
*824 FILLER_0_28_97
*825 FILLER_0_29_105
*826 FILLER_0_29_111
*827 FILLER_0_29_113
*828 FILLER_0_29_125
*829 FILLER_0_29_137
*830 FILLER_0_29_149
*831 FILLER_0_29_15
*832 FILLER_0_29_161
*833 FILLER_0_29_167
*834 FILLER_0_29_169
*835 FILLER_0_29_181
*836 FILLER_0_29_193
*837 FILLER_0_29_205
*838 FILLER_0_29_217
*839 FILLER_0_29_223
*840 FILLER_0_29_225
*841 FILLER_0_29_237
*842 FILLER_0_29_249
*843 FILLER_0_29_261
*844 FILLER_0_29_27
*845 FILLER_0_29_273
*846 FILLER_0_29_279
*847 FILLER_0_29_281
*848 FILLER_0_29_293
*849 FILLER_0_29_3
*850 FILLER_0_29_305
*851 FILLER_0_29_317
*852 FILLER_0_29_329
*853 FILLER_0_29_39
*854 FILLER_0_29_51
*855 FILLER_0_29_55
*856 FILLER_0_29_57
*857 FILLER_0_29_69
*858 FILLER_0_29_81
*859 FILLER_0_29_93
*860 FILLER_0_2_109
*861 FILLER_0_2_121
*862 FILLER_0_2_133
*863 FILLER_0_2_139
*864 FILLER_0_2_141
*865 FILLER_0_2_15
*866 FILLER_0_2_153
*867 FILLER_0_2_165
*868 FILLER_0_2_177
*869 FILLER_0_2_189
*870 FILLER_0_2_195
*871 FILLER_0_2_197
*872 FILLER_0_2_209
*873 FILLER_0_2_221
*874 FILLER_0_2_233
*875 FILLER_0_2_245
*876 FILLER_0_2_251
*877 FILLER_0_2_253
*878 FILLER_0_2_265
*879 FILLER_0_2_27
*880 FILLER_0_2_277
*881 FILLER_0_2_289
*882 FILLER_0_2_29
*883 FILLER_0_2_3
*884 FILLER_0_2_301
*885 FILLER_0_2_307
*886 FILLER_0_2_309
*887 FILLER_0_2_321
*888 FILLER_0_2_333
*889 FILLER_0_2_41
*890 FILLER_0_2_53
*891 FILLER_0_2_65
*892 FILLER_0_2_77
*893 FILLER_0_2_83
*894 FILLER_0_2_85
*895 FILLER_0_2_97
*896 FILLER_0_30_109
*897 FILLER_0_30_121
*898 FILLER_0_30_133
*899 FILLER_0_30_139
*900 FILLER_0_30_141
*901 FILLER_0_30_15
*902 FILLER_0_30_153
*903 FILLER_0_30_165
*904 FILLER_0_30_177
*905 FILLER_0_30_189
*906 FILLER_0_30_195
*907 FILLER_0_30_197
*908 FILLER_0_30_209
*909 FILLER_0_30_221
*910 FILLER_0_30_233
*911 FILLER_0_30_245
*912 FILLER_0_30_251
*913 FILLER_0_30_253
*914 FILLER_0_30_265
*915 FILLER_0_30_27
*916 FILLER_0_30_277
*917 FILLER_0_30_289
*918 FILLER_0_30_29
*919 FILLER_0_30_3
*920 FILLER_0_30_301
*921 FILLER_0_30_307
*922 FILLER_0_30_309
*923 FILLER_0_30_321
*924 FILLER_0_30_333
*925 FILLER_0_30_41
*926 FILLER_0_30_53
*927 FILLER_0_30_65
*928 FILLER_0_30_77
*929 FILLER_0_30_83
*930 FILLER_0_30_85
*931 FILLER_0_30_97
*932 FILLER_0_31_105
*933 FILLER_0_31_111
*934 FILLER_0_31_113
*935 FILLER_0_31_125
*936 FILLER_0_31_137
*937 FILLER_0_31_149
*938 FILLER_0_31_15
*939 FILLER_0_31_161
*940 FILLER_0_31_167
*941 FILLER_0_31_169
*942 FILLER_0_31_181
*943 FILLER_0_31_193
*944 FILLER_0_31_205
*945 FILLER_0_31_217
*946 FILLER_0_31_223
*947 FILLER_0_31_225
*948 FILLER_0_31_237
*949 FILLER_0_31_249
*950 FILLER_0_31_261
*951 FILLER_0_31_27
*952 FILLER_0_31_273
*953 FILLER_0_31_279
*954 FILLER_0_31_281
*955 FILLER_0_31_293
*956 FILLER_0_31_3
*957 FILLER_0_31_305
*958 FILLER_0_31_317
*959 FILLER_0_31_329
*960 FILLER_0_31_39
*961 FILLER_0_31_51
*962 FILLER_0_31_55
*963 FILLER_0_31_57
*964 FILLER_0_31_69
*965 FILLER_0_31_81
*966 FILLER_0_31_93
*967 FILLER_0_32_109
*968 FILLER_0_32_121
*969 FILLER_0_32_133
*970 FILLER_0_32_139
*971 FILLER_0_32_141
*972 FILLER_0_32_15
*973 FILLER_0_32_153
*974 FILLER_0_32_165
*975 FILLER_0_32_177
*976 FILLER_0_32_189
*977 FILLER_0_32_195
*978 FILLER_0_32_197
*979 FILLER_0_32_209
*980 FILLER_0_32_221
*981 FILLER_0_32_233
*982 FILLER_0_32_245
*983 FILLER_0_32_251
*984 FILLER_0_32_253
*985 FILLER_0_32_265
*986 FILLER_0_32_27
*987 FILLER_0_32_277
*988 FILLER_0_32_289
*989 FILLER_0_32_29
*990 FILLER_0_32_3
*991 FILLER_0_32_301
*992 FILLER_0_32_307
*993 FILLER_0_32_309
*994 FILLER_0_32_321
*995 FILLER_0_32_333
*996 FILLER_0_32_41
*997 FILLER_0_32_53
*998 FILLER_0_32_65
*999 FILLER_0_32_77
*1000 FILLER_0_32_83
*1001 FILLER_0_32_85
*1002 FILLER_0_32_97
*1003 FILLER_0_33_105
*1004 FILLER_0_33_111
*1005 FILLER_0_33_113
*1006 FILLER_0_33_125
*1007 FILLER_0_33_137
*1008 FILLER_0_33_149
*1009 FILLER_0_33_15
*1010 FILLER_0_33_161
*1011 FILLER_0_33_166
*1012 FILLER_0_33_169
*1013 FILLER_0_33_181
*1014 FILLER_0_33_193
*1015 FILLER_0_33_205
*1016 FILLER_0_33_217
*1017 FILLER_0_33_223
*1018 FILLER_0_33_225
*1019 FILLER_0_33_237
*1020 FILLER_0_33_249
*1021 FILLER_0_33_261
*1022 FILLER_0_33_27
*1023 FILLER_0_33_273
*1024 FILLER_0_33_279
*1025 FILLER_0_33_281
*1026 FILLER_0_33_293
*1027 FILLER_0_33_3
*1028 FILLER_0_33_305
*1029 FILLER_0_33_317
*1030 FILLER_0_33_329
*1031 FILLER_0_33_39
*1032 FILLER_0_33_51
*1033 FILLER_0_33_55
*1034 FILLER_0_33_57
*1035 FILLER_0_33_69
*1036 FILLER_0_33_81
*1037 FILLER_0_33_93
*1038 FILLER_0_34_109
*1039 FILLER_0_34_121
*1040 FILLER_0_34_133
*1041 FILLER_0_34_139
*1042 FILLER_0_34_141
*1043 FILLER_0_34_147
*1044 FILLER_0_34_15
*1045 FILLER_0_34_151
*1046 FILLER_0_34_174
*1047 FILLER_0_34_185
*1048 FILLER_0_34_193
*1049 FILLER_0_34_197
*1050 FILLER_0_34_209
*1051 FILLER_0_34_221
*1052 FILLER_0_34_233
*1053 FILLER_0_34_245
*1054 FILLER_0_34_251
*1055 FILLER_0_34_253
*1056 FILLER_0_34_265
*1057 FILLER_0_34_27
*1058 FILLER_0_34_277
*1059 FILLER_0_34_289
*1060 FILLER_0_34_29
*1061 FILLER_0_34_3
*1062 FILLER_0_34_301
*1063 FILLER_0_34_307
*1064 FILLER_0_34_309
*1065 FILLER_0_34_321
*1066 FILLER_0_34_333
*1067 FILLER_0_34_41
*1068 FILLER_0_34_53
*1069 FILLER_0_34_65
*1070 FILLER_0_34_77
*1071 FILLER_0_34_83
*1072 FILLER_0_34_85
*1073 FILLER_0_34_97
*1074 FILLER_0_35_105
*1075 FILLER_0_35_111
*1076 FILLER_0_35_113
*1077 FILLER_0_35_125
*1078 FILLER_0_35_137
*1079 FILLER_0_35_15
*1080 FILLER_0_35_157
*1081 FILLER_0_35_166
*1082 FILLER_0_35_218
*1083 FILLER_0_35_225
*1084 FILLER_0_35_237
*1085 FILLER_0_35_249
*1086 FILLER_0_35_261
*1087 FILLER_0_35_27
*1088 FILLER_0_35_273
*1089 FILLER_0_35_279
*1090 FILLER_0_35_281
*1091 FILLER_0_35_293
*1092 FILLER_0_35_3
*1093 FILLER_0_35_305
*1094 FILLER_0_35_317
*1095 FILLER_0_35_329
*1096 FILLER_0_35_39
*1097 FILLER_0_35_51
*1098 FILLER_0_35_55
*1099 FILLER_0_35_57
*1100 FILLER_0_35_69
*1101 FILLER_0_35_81
*1102 FILLER_0_35_93
*1103 FILLER_0_36_109
*1104 FILLER_0_36_121
*1105 FILLER_0_36_133
*1106 FILLER_0_36_139
*1107 FILLER_0_36_141
*1108 FILLER_0_36_15
*1109 FILLER_0_36_173
*1110 FILLER_0_36_181
*1111 FILLER_0_36_187
*1112 FILLER_0_36_197
*1113 FILLER_0_36_226
*1114 FILLER_0_36_238
*1115 FILLER_0_36_250
*1116 FILLER_0_36_253
*1117 FILLER_0_36_265
*1118 FILLER_0_36_27
*1119 FILLER_0_36_277
*1120 FILLER_0_36_289
*1121 FILLER_0_36_29
*1122 FILLER_0_36_3
*1123 FILLER_0_36_301
*1124 FILLER_0_36_307
*1125 FILLER_0_36_309
*1126 FILLER_0_36_321
*1127 FILLER_0_36_333
*1128 FILLER_0_36_41
*1129 FILLER_0_36_53
*1130 FILLER_0_36_65
*1131 FILLER_0_36_77
*1132 FILLER_0_36_83
*1133 FILLER_0_36_85
*1134 FILLER_0_36_97
*1135 FILLER_0_37_105
*1136 FILLER_0_37_111
*1137 FILLER_0_37_113
*1138 FILLER_0_37_125
*1139 FILLER_0_37_137
*1140 FILLER_0_37_15
*1141 FILLER_0_37_169
*1142 FILLER_0_37_195
*1143 FILLER_0_37_225
*1144 FILLER_0_37_237
*1145 FILLER_0_37_249
*1146 FILLER_0_37_261
*1147 FILLER_0_37_27
*1148 FILLER_0_37_273
*1149 FILLER_0_37_279
*1150 FILLER_0_37_281
*1151 FILLER_0_37_293
*1152 FILLER_0_37_3
*1153 FILLER_0_37_305
*1154 FILLER_0_37_317
*1155 FILLER_0_37_329
*1156 FILLER_0_37_39
*1157 FILLER_0_37_51
*1158 FILLER_0_37_55
*1159 FILLER_0_37_57
*1160 FILLER_0_37_69
*1161 FILLER_0_37_81
*1162 FILLER_0_37_93
*1163 FILLER_0_38_10
*1164 FILLER_0_38_102
*1165 FILLER_0_38_106
*1166 FILLER_0_38_110
*1167 FILLER_0_38_113
*1168 FILLER_0_38_118
*1169 FILLER_0_38_122
*1170 FILLER_0_38_126
*1171 FILLER_0_38_130
*1172 FILLER_0_38_134
*1173 FILLER_0_38_14
*1174 FILLER_0_38_148
*1175 FILLER_0_38_158
*1176 FILLER_0_38_166
*1177 FILLER_0_38_169
*1178 FILLER_0_38_174
*1179 FILLER_0_38_18
*1180 FILLER_0_38_184
*1181 FILLER_0_38_189
*1182 FILLER_0_38_195
*1183 FILLER_0_38_203
*1184 FILLER_0_38_217
*1185 FILLER_0_38_22
*1186 FILLER_0_38_223
*1187 FILLER_0_38_225
*1188 FILLER_0_38_237
*1189 FILLER_0_38_249
*1190 FILLER_0_38_253
*1191 FILLER_0_38_265
*1192 FILLER_0_38_277
*1193 FILLER_0_38_281
*1194 FILLER_0_38_293
*1195 FILLER_0_38_305
*1196 FILLER_0_38_309
*1197 FILLER_0_38_315
*1198 FILLER_0_38_32
*1199 FILLER_0_38_326
*1200 FILLER_0_38_334
*1201 FILLER_0_38_38
*1202 FILLER_0_38_42
*1203 FILLER_0_38_46
*1204 FILLER_0_38_50
*1205 FILLER_0_38_54
*1206 FILLER_0_38_57
*1207 FILLER_0_38_6
*1208 FILLER_0_38_62
*1209 FILLER_0_38_66
*1210 FILLER_0_38_70
*1211 FILLER_0_38_74
*1212 FILLER_0_38_78
*1213 FILLER_0_38_88
*1214 FILLER_0_38_94
*1215 FILLER_0_38_98
*1216 FILLER_0_3_105
*1217 FILLER_0_3_111
*1218 FILLER_0_3_113
*1219 FILLER_0_3_125
*1220 FILLER_0_3_137
*1221 FILLER_0_3_149
*1222 FILLER_0_3_15
*1223 FILLER_0_3_161
*1224 FILLER_0_3_167
*1225 FILLER_0_3_169
*1226 FILLER_0_3_181
*1227 FILLER_0_3_193
*1228 FILLER_0_3_205
*1229 FILLER_0_3_217
*1230 FILLER_0_3_223
*1231 FILLER_0_3_225
*1232 FILLER_0_3_237
*1233 FILLER_0_3_249
*1234 FILLER_0_3_261
*1235 FILLER_0_3_27
*1236 FILLER_0_3_273
*1237 FILLER_0_3_279
*1238 FILLER_0_3_281
*1239 FILLER_0_3_293
*1240 FILLER_0_3_3
*1241 FILLER_0_3_305
*1242 FILLER_0_3_317
*1243 FILLER_0_3_329
*1244 FILLER_0_3_39
*1245 FILLER_0_3_51
*1246 FILLER_0_3_55
*1247 FILLER_0_3_57
*1248 FILLER_0_3_69
*1249 FILLER_0_3_81
*1250 FILLER_0_3_93
*1251 FILLER_0_4_109
*1252 FILLER_0_4_121
*1253 FILLER_0_4_133
*1254 FILLER_0_4_139
*1255 FILLER_0_4_141
*1256 FILLER_0_4_15
*1257 FILLER_0_4_153
*1258 FILLER_0_4_165
*1259 FILLER_0_4_177
*1260 FILLER_0_4_189
*1261 FILLER_0_4_195
*1262 FILLER_0_4_197
*1263 FILLER_0_4_209
*1264 FILLER_0_4_221
*1265 FILLER_0_4_233
*1266 FILLER_0_4_245
*1267 FILLER_0_4_251
*1268 FILLER_0_4_253
*1269 FILLER_0_4_265
*1270 FILLER_0_4_27
*1271 FILLER_0_4_277
*1272 FILLER_0_4_289
*1273 FILLER_0_4_29
*1274 FILLER_0_4_3
*1275 FILLER_0_4_301
*1276 FILLER_0_4_307
*1277 FILLER_0_4_309
*1278 FILLER_0_4_321
*1279 FILLER_0_4_333
*1280 FILLER_0_4_41
*1281 FILLER_0_4_53
*1282 FILLER_0_4_65
*1283 FILLER_0_4_77
*1284 FILLER_0_4_83
*1285 FILLER_0_4_85
*1286 FILLER_0_4_97
*1287 FILLER_0_5_105
*1288 FILLER_0_5_111
*1289 FILLER_0_5_113
*1290 FILLER_0_5_125
*1291 FILLER_0_5_137
*1292 FILLER_0_5_149
*1293 FILLER_0_5_15
*1294 FILLER_0_5_161
*1295 FILLER_0_5_167
*1296 FILLER_0_5_169
*1297 FILLER_0_5_181
*1298 FILLER_0_5_193
*1299 FILLER_0_5_205
*1300 FILLER_0_5_217
*1301 FILLER_0_5_223
*1302 FILLER_0_5_225
*1303 FILLER_0_5_237
*1304 FILLER_0_5_249
*1305 FILLER_0_5_261
*1306 FILLER_0_5_27
*1307 FILLER_0_5_273
*1308 FILLER_0_5_279
*1309 FILLER_0_5_281
*1310 FILLER_0_5_293
*1311 FILLER_0_5_3
*1312 FILLER_0_5_305
*1313 FILLER_0_5_317
*1314 FILLER_0_5_329
*1315 FILLER_0_5_39
*1316 FILLER_0_5_51
*1317 FILLER_0_5_55
*1318 FILLER_0_5_57
*1319 FILLER_0_5_69
*1320 FILLER_0_5_81
*1321 FILLER_0_5_93
*1322 FILLER_0_6_109
*1323 FILLER_0_6_121
*1324 FILLER_0_6_133
*1325 FILLER_0_6_139
*1326 FILLER_0_6_141
*1327 FILLER_0_6_15
*1328 FILLER_0_6_153
*1329 FILLER_0_6_165
*1330 FILLER_0_6_177
*1331 FILLER_0_6_189
*1332 FILLER_0_6_195
*1333 FILLER_0_6_197
*1334 FILLER_0_6_209
*1335 FILLER_0_6_221
*1336 FILLER_0_6_233
*1337 FILLER_0_6_245
*1338 FILLER_0_6_251
*1339 FILLER_0_6_253
*1340 FILLER_0_6_265
*1341 FILLER_0_6_27
*1342 FILLER_0_6_277
*1343 FILLER_0_6_289
*1344 FILLER_0_6_29
*1345 FILLER_0_6_3
*1346 FILLER_0_6_301
*1347 FILLER_0_6_307
*1348 FILLER_0_6_309
*1349 FILLER_0_6_321
*1350 FILLER_0_6_333
*1351 FILLER_0_6_41
*1352 FILLER_0_6_53
*1353 FILLER_0_6_65
*1354 FILLER_0_6_77
*1355 FILLER_0_6_83
*1356 FILLER_0_6_85
*1357 FILLER_0_6_97
*1358 FILLER_0_7_105
*1359 FILLER_0_7_111
*1360 FILLER_0_7_113
*1361 FILLER_0_7_125
*1362 FILLER_0_7_137
*1363 FILLER_0_7_149
*1364 FILLER_0_7_15
*1365 FILLER_0_7_161
*1366 FILLER_0_7_167
*1367 FILLER_0_7_169
*1368 FILLER_0_7_181
*1369 FILLER_0_7_193
*1370 FILLER_0_7_205
*1371 FILLER_0_7_217
*1372 FILLER_0_7_223
*1373 FILLER_0_7_225
*1374 FILLER_0_7_237
*1375 FILLER_0_7_249
*1376 FILLER_0_7_261
*1377 FILLER_0_7_27
*1378 FILLER_0_7_273
*1379 FILLER_0_7_279
*1380 FILLER_0_7_281
*1381 FILLER_0_7_293
*1382 FILLER_0_7_3
*1383 FILLER_0_7_305
*1384 FILLER_0_7_317
*1385 FILLER_0_7_329
*1386 FILLER_0_7_39
*1387 FILLER_0_7_51
*1388 FILLER_0_7_55
*1389 FILLER_0_7_57
*1390 FILLER_0_7_69
*1391 FILLER_0_7_81
*1392 FILLER_0_7_93
*1393 FILLER_0_8_109
*1394 FILLER_0_8_121
*1395 FILLER_0_8_133
*1396 FILLER_0_8_139
*1397 FILLER_0_8_141
*1398 FILLER_0_8_15
*1399 FILLER_0_8_153
*1400 FILLER_0_8_165
*1401 FILLER_0_8_177
*1402 FILLER_0_8_189
*1403 FILLER_0_8_195
*1404 FILLER_0_8_197
*1405 FILLER_0_8_209
*1406 FILLER_0_8_221
*1407 FILLER_0_8_233
*1408 FILLER_0_8_245
*1409 FILLER_0_8_251
*1410 FILLER_0_8_253
*1411 FILLER_0_8_265
*1412 FILLER_0_8_27
*1413 FILLER_0_8_277
*1414 FILLER_0_8_289
*1415 FILLER_0_8_29
*1416 FILLER_0_8_3
*1417 FILLER_0_8_301
*1418 FILLER_0_8_307
*1419 FILLER_0_8_309
*1420 FILLER_0_8_321
*1421 FILLER_0_8_333
*1422 FILLER_0_8_41
*1423 FILLER_0_8_53
*1424 FILLER_0_8_65
*1425 FILLER_0_8_77
*1426 FILLER_0_8_83
*1427 FILLER_0_8_85
*1428 FILLER_0_8_97
*1429 FILLER_0_9_105
*1430 FILLER_0_9_111
*1431 FILLER_0_9_113
*1432 FILLER_0_9_125
*1433 FILLER_0_9_137
*1434 FILLER_0_9_149
*1435 FILLER_0_9_15
*1436 FILLER_0_9_161
*1437 FILLER_0_9_167
*1438 FILLER_0_9_169
*1439 FILLER_0_9_181
*1440 FILLER_0_9_193
*1441 FILLER_0_9_205
*1442 FILLER_0_9_217
*1443 FILLER_0_9_223
*1444 FILLER_0_9_225
*1445 FILLER_0_9_237
*1446 FILLER_0_9_249
*1447 FILLER_0_9_261
*1448 FILLER_0_9_27
*1449 FILLER_0_9_273
*1450 FILLER_0_9_279
*1451 FILLER_0_9_281
*1452 FILLER_0_9_293
*1453 FILLER_0_9_3
*1454 FILLER_0_9_305
*1455 FILLER_0_9_317
*1456 FILLER_0_9_329
*1457 FILLER_0_9_39
*1458 FILLER_0_9_51
*1459 FILLER_0_9_55
*1460 FILLER_0_9_57
*1461 FILLER_0_9_69
*1462 FILLER_0_9_81
*1463 FILLER_0_9_93