*SPEF "ieee 1481-1999"
*DESIGN "tt_um_wokwi_395134712676183041"
*DATE "18:38:19 Sunday April 14, 2024"
*VENDOR "The OpenROAD Project"
*PROGRAM "OpenROAD"
*VERSION "0889970d1790a2617e69f253221b8bd7626e51dc"
*DESIGN_FLOW "NAME_SCOPE LOCAL" "PIN_CAP NONE"
*DIVIDER /
*DELIMITER :
*BUS_DELIMITER []
*T_UNIT 1 NS
*C_UNIT 1 PF
*R_UNIT 1 OHM
*L_UNIT 1 HENRY

*NAME_MAP
*3 clk
*4 ena
*5 rst_n
*6 ui_in[0]
*7 ui_in[1]
*8 ui_in[2]
*9 ui_in[3]
*10 ui_in[4]
*11 ui_in[5]
*12 ui_in[6]
*13 ui_in[7]
*14 uio_in[0]
*15 uio_in[1]
*16 uio_in[2]
*17 uio_in[3]
*18 uio_in[4]
*19 uio_in[5]
*20 uio_in[6]
*21 uio_in[7]
*22 uio_oe[0]
*23 uio_oe[1]
*24 uio_oe[2]
*25 uio_oe[3]
*26 uio_oe[4]
*27 uio_oe[5]
*28 uio_oe[6]
*29 uio_oe[7]
*30 net13
*31 uio_out[1]
*32 net14
*33 uio_out[3]
*34 net15
*35 uio_out[5]
*36 net16
*37 uio_out[7]
*38 uo_out[0]
*39 uo_out[1]
*40 uo_out[2]
*41 uo_out[3]
*42 uo_out[4]
*43 uo_out[5]
*44 uo_out[6]
*45 uo_out[7]
*46 flop1\.q
*47 net1
*48 net10
*49 net11
*50 net12
*51 net2
*52 net3
*53 net4
*54 net5
*55 net6
*56 net7
*57 net8
*58 net9
*59 not1\.out
*60 not10\.out
*61 not11\.out
*62 not2\.out
*63 not3\.out
*64 not4\.out
*65 not5\.out
*66 not6\.out
*67 not7\.out
*68 not8\.out
*69 not9\.out
*70 FILLER_0_0_109
*71 FILLER_0_0_113
*72 FILLER_0_0_125
*73 FILLER_0_0_137
*74 FILLER_0_0_141
*75 FILLER_0_0_15
*76 FILLER_0_0_153
*77 FILLER_0_0_165
*78 FILLER_0_0_169
*79 FILLER_0_0_181
*80 FILLER_0_0_193
*81 FILLER_0_0_197
*82 FILLER_0_0_209
*83 FILLER_0_0_221
*84 FILLER_0_0_225
*85 FILLER_0_0_237
*86 FILLER_0_0_249
*87 FILLER_0_0_253
*88 FILLER_0_0_265
*89 FILLER_0_0_27
*90 FILLER_0_0_277
*91 FILLER_0_0_281
*92 FILLER_0_0_29
*93 FILLER_0_0_293
*94 FILLER_0_0_3
*95 FILLER_0_0_305
*96 FILLER_0_0_309
*97 FILLER_0_0_321
*98 FILLER_0_0_333
*99 FILLER_0_0_41
*100 FILLER_0_0_53
*101 FILLER_0_0_57
*102 FILLER_0_0_69
*103 FILLER_0_0_81
*104 FILLER_0_0_85
*105 FILLER_0_0_97
*106 FILLER_0_10_109
*107 FILLER_0_10_121
*108 FILLER_0_10_133
*109 FILLER_0_10_139
*110 FILLER_0_10_141
*111 FILLER_0_10_15
*112 FILLER_0_10_153
*113 FILLER_0_10_165
*114 FILLER_0_10_177
*115 FILLER_0_10_189
*116 FILLER_0_10_195
*117 FILLER_0_10_197
*118 FILLER_0_10_209
*119 FILLER_0_10_221
*120 FILLER_0_10_233
*121 FILLER_0_10_245
*122 FILLER_0_10_251
*123 FILLER_0_10_253
*124 FILLER_0_10_265
*125 FILLER_0_10_27
*126 FILLER_0_10_277
*127 FILLER_0_10_289
*128 FILLER_0_10_29
*129 FILLER_0_10_3
*130 FILLER_0_10_301
*131 FILLER_0_10_307
*132 FILLER_0_10_309
*133 FILLER_0_10_321
*134 FILLER_0_10_333
*135 FILLER_0_10_41
*136 FILLER_0_10_53
*137 FILLER_0_10_65
*138 FILLER_0_10_77
*139 FILLER_0_10_83
*140 FILLER_0_10_85
*141 FILLER_0_10_97
*142 FILLER_0_11_105
*143 FILLER_0_11_111
*144 FILLER_0_11_113
*145 FILLER_0_11_125
*146 FILLER_0_11_137
*147 FILLER_0_11_149
*148 FILLER_0_11_15
*149 FILLER_0_11_161
*150 FILLER_0_11_167
*151 FILLER_0_11_169
*152 FILLER_0_11_181
*153 FILLER_0_11_193
*154 FILLER_0_11_205
*155 FILLER_0_11_217
*156 FILLER_0_11_223
*157 FILLER_0_11_225
*158 FILLER_0_11_237
*159 FILLER_0_11_249
*160 FILLER_0_11_261
*161 FILLER_0_11_27
*162 FILLER_0_11_273
*163 FILLER_0_11_279
*164 FILLER_0_11_281
*165 FILLER_0_11_293
*166 FILLER_0_11_3
*167 FILLER_0_11_305
*168 FILLER_0_11_317
*169 FILLER_0_11_329
*170 FILLER_0_11_39
*171 FILLER_0_11_51
*172 FILLER_0_11_55
*173 FILLER_0_11_57
*174 FILLER_0_11_69
*175 FILLER_0_11_81
*176 FILLER_0_11_93
*177 FILLER_0_12_109
*178 FILLER_0_12_121
*179 FILLER_0_12_133
*180 FILLER_0_12_139
*181 FILLER_0_12_141
*182 FILLER_0_12_15
*183 FILLER_0_12_153
*184 FILLER_0_12_165
*185 FILLER_0_12_177
*186 FILLER_0_12_189
*187 FILLER_0_12_195
*188 FILLER_0_12_197
*189 FILLER_0_12_209
*190 FILLER_0_12_221
*191 FILLER_0_12_233
*192 FILLER_0_12_245
*193 FILLER_0_12_251
*194 FILLER_0_12_253
*195 FILLER_0_12_265
*196 FILLER_0_12_27
*197 FILLER_0_12_277
*198 FILLER_0_12_289
*199 FILLER_0_12_29
*200 FILLER_0_12_3
*201 FILLER_0_12_301
*202 FILLER_0_12_307
*203 FILLER_0_12_309
*204 FILLER_0_12_321
*205 FILLER_0_12_333
*206 FILLER_0_12_41
*207 FILLER_0_12_53
*208 FILLER_0_12_65
*209 FILLER_0_12_77
*210 FILLER_0_12_83
*211 FILLER_0_12_85
*212 FILLER_0_12_97
*213 FILLER_0_13_105
*214 FILLER_0_13_111
*215 FILLER_0_13_113
*216 FILLER_0_13_125
*217 FILLER_0_13_137
*218 FILLER_0_13_149
*219 FILLER_0_13_15
*220 FILLER_0_13_161
*221 FILLER_0_13_167
*222 FILLER_0_13_169
*223 FILLER_0_13_181
*224 FILLER_0_13_193
*225 FILLER_0_13_205
*226 FILLER_0_13_217
*227 FILLER_0_13_223
*228 FILLER_0_13_225
*229 FILLER_0_13_237
*230 FILLER_0_13_249
*231 FILLER_0_13_261
*232 FILLER_0_13_27
*233 FILLER_0_13_273
*234 FILLER_0_13_279
*235 FILLER_0_13_281
*236 FILLER_0_13_293
*237 FILLER_0_13_3
*238 FILLER_0_13_305
*239 FILLER_0_13_317
*240 FILLER_0_13_329
*241 FILLER_0_13_39
*242 FILLER_0_13_51
*243 FILLER_0_13_55
*244 FILLER_0_13_57
*245 FILLER_0_13_69
*246 FILLER_0_13_81
*247 FILLER_0_13_93
*248 FILLER_0_14_109
*249 FILLER_0_14_121
*250 FILLER_0_14_133
*251 FILLER_0_14_139
*252 FILLER_0_14_141
*253 FILLER_0_14_15
*254 FILLER_0_14_153
*255 FILLER_0_14_165
*256 FILLER_0_14_177
*257 FILLER_0_14_189
*258 FILLER_0_14_195
*259 FILLER_0_14_197
*260 FILLER_0_14_209
*261 FILLER_0_14_221
*262 FILLER_0_14_233
*263 FILLER_0_14_245
*264 FILLER_0_14_251
*265 FILLER_0_14_253
*266 FILLER_0_14_265
*267 FILLER_0_14_27
*268 FILLER_0_14_277
*269 FILLER_0_14_289
*270 FILLER_0_14_29
*271 FILLER_0_14_3
*272 FILLER_0_14_301
*273 FILLER_0_14_307
*274 FILLER_0_14_309
*275 FILLER_0_14_321
*276 FILLER_0_14_333
*277 FILLER_0_14_41
*278 FILLER_0_14_53
*279 FILLER_0_14_65
*280 FILLER_0_14_77
*281 FILLER_0_14_83
*282 FILLER_0_14_85
*283 FILLER_0_14_97
*284 FILLER_0_15_105
*285 FILLER_0_15_111
*286 FILLER_0_15_113
*287 FILLER_0_15_125
*288 FILLER_0_15_137
*289 FILLER_0_15_149
*290 FILLER_0_15_15
*291 FILLER_0_15_161
*292 FILLER_0_15_167
*293 FILLER_0_15_169
*294 FILLER_0_15_181
*295 FILLER_0_15_193
*296 FILLER_0_15_205
*297 FILLER_0_15_217
*298 FILLER_0_15_223
*299 FILLER_0_15_225
*300 FILLER_0_15_237
*301 FILLER_0_15_249
*302 FILLER_0_15_261
*303 FILLER_0_15_27
*304 FILLER_0_15_273
*305 FILLER_0_15_279
*306 FILLER_0_15_281
*307 FILLER_0_15_293
*308 FILLER_0_15_3
*309 FILLER_0_15_305
*310 FILLER_0_15_317
*311 FILLER_0_15_329
*312 FILLER_0_15_39
*313 FILLER_0_15_51
*314 FILLER_0_15_55
*315 FILLER_0_15_57
*316 FILLER_0_15_69
*317 FILLER_0_15_81
*318 FILLER_0_15_93
*319 FILLER_0_16_109
*320 FILLER_0_16_121
*321 FILLER_0_16_133
*322 FILLER_0_16_139
*323 FILLER_0_16_141
*324 FILLER_0_16_15
*325 FILLER_0_16_153
*326 FILLER_0_16_165
*327 FILLER_0_16_177
*328 FILLER_0_16_189
*329 FILLER_0_16_195
*330 FILLER_0_16_197
*331 FILLER_0_16_209
*332 FILLER_0_16_221
*333 FILLER_0_16_233
*334 FILLER_0_16_245
*335 FILLER_0_16_251
*336 FILLER_0_16_253
*337 FILLER_0_16_265
*338 FILLER_0_16_27
*339 FILLER_0_16_277
*340 FILLER_0_16_289
*341 FILLER_0_16_29
*342 FILLER_0_16_3
*343 FILLER_0_16_301
*344 FILLER_0_16_307
*345 FILLER_0_16_309
*346 FILLER_0_16_321
*347 FILLER_0_16_333
*348 FILLER_0_16_41
*349 FILLER_0_16_53
*350 FILLER_0_16_65
*351 FILLER_0_16_77
*352 FILLER_0_16_83
*353 FILLER_0_16_85
*354 FILLER_0_16_97
*355 FILLER_0_17_105
*356 FILLER_0_17_111
*357 FILLER_0_17_113
*358 FILLER_0_17_125
*359 FILLER_0_17_137
*360 FILLER_0_17_149
*361 FILLER_0_17_15
*362 FILLER_0_17_161
*363 FILLER_0_17_167
*364 FILLER_0_17_169
*365 FILLER_0_17_181
*366 FILLER_0_17_193
*367 FILLER_0_17_205
*368 FILLER_0_17_217
*369 FILLER_0_17_223
*370 FILLER_0_17_225
*371 FILLER_0_17_237
*372 FILLER_0_17_249
*373 FILLER_0_17_261
*374 FILLER_0_17_27
*375 FILLER_0_17_273
*376 FILLER_0_17_279
*377 FILLER_0_17_281
*378 FILLER_0_17_293
*379 FILLER_0_17_3
*380 FILLER_0_17_305
*381 FILLER_0_17_317
*382 FILLER_0_17_329
*383 FILLER_0_17_39
*384 FILLER_0_17_51
*385 FILLER_0_17_55
*386 FILLER_0_17_57
*387 FILLER_0_17_69
*388 FILLER_0_17_81
*389 FILLER_0_17_93
*390 FILLER_0_18_109
*391 FILLER_0_18_121
*392 FILLER_0_18_133
*393 FILLER_0_18_139
*394 FILLER_0_18_141
*395 FILLER_0_18_15
*396 FILLER_0_18_153
*397 FILLER_0_18_165
*398 FILLER_0_18_177
*399 FILLER_0_18_189
*400 FILLER_0_18_195
*401 FILLER_0_18_197
*402 FILLER_0_18_209
*403 FILLER_0_18_221
*404 FILLER_0_18_233
*405 FILLER_0_18_245
*406 FILLER_0_18_251
*407 FILLER_0_18_253
*408 FILLER_0_18_265
*409 FILLER_0_18_27
*410 FILLER_0_18_277
*411 FILLER_0_18_289
*412 FILLER_0_18_29
*413 FILLER_0_18_3
*414 FILLER_0_18_301
*415 FILLER_0_18_307
*416 FILLER_0_18_309
*417 FILLER_0_18_321
*418 FILLER_0_18_333
*419 FILLER_0_18_41
*420 FILLER_0_18_53
*421 FILLER_0_18_65
*422 FILLER_0_18_77
*423 FILLER_0_18_83
*424 FILLER_0_18_85
*425 FILLER_0_18_97
*426 FILLER_0_19_105
*427 FILLER_0_19_111
*428 FILLER_0_19_113
*429 FILLER_0_19_125
*430 FILLER_0_19_137
*431 FILLER_0_19_149
*432 FILLER_0_19_15
*433 FILLER_0_19_161
*434 FILLER_0_19_167
*435 FILLER_0_19_169
*436 FILLER_0_19_181
*437 FILLER_0_19_193
*438 FILLER_0_19_205
*439 FILLER_0_19_217
*440 FILLER_0_19_223
*441 FILLER_0_19_225
*442 FILLER_0_19_237
*443 FILLER_0_19_249
*444 FILLER_0_19_261
*445 FILLER_0_19_27
*446 FILLER_0_19_273
*447 FILLER_0_19_279
*448 FILLER_0_19_281
*449 FILLER_0_19_293
*450 FILLER_0_19_3
*451 FILLER_0_19_305
*452 FILLER_0_19_317
*453 FILLER_0_19_329
*454 FILLER_0_19_39
*455 FILLER_0_19_51
*456 FILLER_0_19_55
*457 FILLER_0_19_57
*458 FILLER_0_19_69
*459 FILLER_0_19_81
*460 FILLER_0_19_93
*461 FILLER_0_1_105
*462 FILLER_0_1_111
*463 FILLER_0_1_113
*464 FILLER_0_1_125
*465 FILLER_0_1_137
*466 FILLER_0_1_149
*467 FILLER_0_1_15
*468 FILLER_0_1_161
*469 FILLER_0_1_167
*470 FILLER_0_1_169
*471 FILLER_0_1_181
*472 FILLER_0_1_193
*473 FILLER_0_1_205
*474 FILLER_0_1_217
*475 FILLER_0_1_223
*476 FILLER_0_1_225
*477 FILLER_0_1_237
*478 FILLER_0_1_249
*479 FILLER_0_1_261
*480 FILLER_0_1_27
*481 FILLER_0_1_273
*482 FILLER_0_1_279
*483 FILLER_0_1_281
*484 FILLER_0_1_293
*485 FILLER_0_1_3
*486 FILLER_0_1_305
*487 FILLER_0_1_317
*488 FILLER_0_1_329
*489 FILLER_0_1_39
*490 FILLER_0_1_51
*491 FILLER_0_1_55
*492 FILLER_0_1_57
*493 FILLER_0_1_69
*494 FILLER_0_1_81
*495 FILLER_0_1_93
*496 FILLER_0_20_109
*497 FILLER_0_20_121
*498 FILLER_0_20_133
*499 FILLER_0_20_139
*500 FILLER_0_20_141
*501 FILLER_0_20_15
*502 FILLER_0_20_153
*503 FILLER_0_20_165
*504 FILLER_0_20_177
*505 FILLER_0_20_189
*506 FILLER_0_20_195
*507 FILLER_0_20_197
*508 FILLER_0_20_209
*509 FILLER_0_20_221
*510 FILLER_0_20_233
*511 FILLER_0_20_245
*512 FILLER_0_20_251
*513 FILLER_0_20_253
*514 FILLER_0_20_265
*515 FILLER_0_20_27
*516 FILLER_0_20_277
*517 FILLER_0_20_289
*518 FILLER_0_20_29
*519 FILLER_0_20_3
*520 FILLER_0_20_301
*521 FILLER_0_20_307
*522 FILLER_0_20_309
*523 FILLER_0_20_321
*524 FILLER_0_20_333
*525 FILLER_0_20_41
*526 FILLER_0_20_53
*527 FILLER_0_20_65
*528 FILLER_0_20_77
*529 FILLER_0_20_83
*530 FILLER_0_20_85
*531 FILLER_0_20_97
*532 FILLER_0_21_105
*533 FILLER_0_21_111
*534 FILLER_0_21_113
*535 FILLER_0_21_125
*536 FILLER_0_21_137
*537 FILLER_0_21_149
*538 FILLER_0_21_15
*539 FILLER_0_21_161
*540 FILLER_0_21_167
*541 FILLER_0_21_169
*542 FILLER_0_21_181
*543 FILLER_0_21_193
*544 FILLER_0_21_205
*545 FILLER_0_21_217
*546 FILLER_0_21_223
*547 FILLER_0_21_225
*548 FILLER_0_21_237
*549 FILLER_0_21_249
*550 FILLER_0_21_261
*551 FILLER_0_21_27
*552 FILLER_0_21_273
*553 FILLER_0_21_279
*554 FILLER_0_21_281
*555 FILLER_0_21_293
*556 FILLER_0_21_3
*557 FILLER_0_21_305
*558 FILLER_0_21_317
*559 FILLER_0_21_329
*560 FILLER_0_21_39
*561 FILLER_0_21_51
*562 FILLER_0_21_55
*563 FILLER_0_21_57
*564 FILLER_0_21_69
*565 FILLER_0_21_81
*566 FILLER_0_21_93
*567 FILLER_0_22_109
*568 FILLER_0_22_121
*569 FILLER_0_22_133
*570 FILLER_0_22_139
*571 FILLER_0_22_141
*572 FILLER_0_22_15
*573 FILLER_0_22_153
*574 FILLER_0_22_165
*575 FILLER_0_22_177
*576 FILLER_0_22_189
*577 FILLER_0_22_195
*578 FILLER_0_22_197
*579 FILLER_0_22_209
*580 FILLER_0_22_221
*581 FILLER_0_22_233
*582 FILLER_0_22_245
*583 FILLER_0_22_251
*584 FILLER_0_22_253
*585 FILLER_0_22_265
*586 FILLER_0_22_27
*587 FILLER_0_22_277
*588 FILLER_0_22_289
*589 FILLER_0_22_29
*590 FILLER_0_22_3
*591 FILLER_0_22_301
*592 FILLER_0_22_307
*593 FILLER_0_22_309
*594 FILLER_0_22_321
*595 FILLER_0_22_333
*596 FILLER_0_22_41
*597 FILLER_0_22_53
*598 FILLER_0_22_65
*599 FILLER_0_22_77
*600 FILLER_0_22_83
*601 FILLER_0_22_85
*602 FILLER_0_22_97
*603 FILLER_0_23_105
*604 FILLER_0_23_111
*605 FILLER_0_23_113
*606 FILLER_0_23_125
*607 FILLER_0_23_137
*608 FILLER_0_23_149
*609 FILLER_0_23_15
*610 FILLER_0_23_161
*611 FILLER_0_23_167
*612 FILLER_0_23_169
*613 FILLER_0_23_181
*614 FILLER_0_23_193
*615 FILLER_0_23_205
*616 FILLER_0_23_217
*617 FILLER_0_23_223
*618 FILLER_0_23_225
*619 FILLER_0_23_237
*620 FILLER_0_23_249
*621 FILLER_0_23_261
*622 FILLER_0_23_27
*623 FILLER_0_23_273
*624 FILLER_0_23_279
*625 FILLER_0_23_281
*626 FILLER_0_23_293
*627 FILLER_0_23_3
*628 FILLER_0_23_305
*629 FILLER_0_23_317
*630 FILLER_0_23_329
*631 FILLER_0_23_39
*632 FILLER_0_23_51
*633 FILLER_0_23_55
*634 FILLER_0_23_57
*635 FILLER_0_23_69
*636 FILLER_0_23_81
*637 FILLER_0_23_93
*638 FILLER_0_24_109
*639 FILLER_0_24_121
*640 FILLER_0_24_133
*641 FILLER_0_24_139
*642 FILLER_0_24_141
*643 FILLER_0_24_15
*644 FILLER_0_24_153
*645 FILLER_0_24_165
*646 FILLER_0_24_177
*647 FILLER_0_24_189
*648 FILLER_0_24_195
*649 FILLER_0_24_197
*650 FILLER_0_24_209
*651 FILLER_0_24_221
*652 FILLER_0_24_233
*653 FILLER_0_24_245
*654 FILLER_0_24_251
*655 FILLER_0_24_253
*656 FILLER_0_24_265
*657 FILLER_0_24_27
*658 FILLER_0_24_277
*659 FILLER_0_24_289
*660 FILLER_0_24_29
*661 FILLER_0_24_3
*662 FILLER_0_24_301
*663 FILLER_0_24_307
*664 FILLER_0_24_309
*665 FILLER_0_24_321
*666 FILLER_0_24_333
*667 FILLER_0_24_41
*668 FILLER_0_24_53
*669 FILLER_0_24_65
*670 FILLER_0_24_77
*671 FILLER_0_24_83
*672 FILLER_0_24_85
*673 FILLER_0_24_97
*674 FILLER_0_25_105
*675 FILLER_0_25_111
*676 FILLER_0_25_113
*677 FILLER_0_25_125
*678 FILLER_0_25_137
*679 FILLER_0_25_149
*680 FILLER_0_25_15
*681 FILLER_0_25_161
*682 FILLER_0_25_167
*683 FILLER_0_25_169
*684 FILLER_0_25_181
*685 FILLER_0_25_193
*686 FILLER_0_25_205
*687 FILLER_0_25_217
*688 FILLER_0_25_223
*689 FILLER_0_25_225
*690 FILLER_0_25_237
*691 FILLER_0_25_249
*692 FILLER_0_25_261
*693 FILLER_0_25_27
*694 FILLER_0_25_273
*695 FILLER_0_25_279
*696 FILLER_0_25_281
*697 FILLER_0_25_293
*698 FILLER_0_25_3
*699 FILLER_0_25_305
*700 FILLER_0_25_317
*701 FILLER_0_25_329
*702 FILLER_0_25_39
*703 FILLER_0_25_51
*704 FILLER_0_25_55
*705 FILLER_0_25_57
*706 FILLER_0_25_69
*707 FILLER_0_25_81
*708 FILLER_0_25_93
*709 FILLER_0_26_109
*710 FILLER_0_26_121
*711 FILLER_0_26_133
*712 FILLER_0_26_139
*713 FILLER_0_26_141
*714 FILLER_0_26_15
*715 FILLER_0_26_153
*716 FILLER_0_26_165
*717 FILLER_0_26_177
*718 FILLER_0_26_189
*719 FILLER_0_26_195
*720 FILLER_0_26_197
*721 FILLER_0_26_209
*722 FILLER_0_26_221
*723 FILLER_0_26_233
*724 FILLER_0_26_245
*725 FILLER_0_26_251
*726 FILLER_0_26_253
*727 FILLER_0_26_265
*728 FILLER_0_26_27
*729 FILLER_0_26_277
*730 FILLER_0_26_289
*731 FILLER_0_26_29
*732 FILLER_0_26_3
*733 FILLER_0_26_301
*734 FILLER_0_26_307
*735 FILLER_0_26_309
*736 FILLER_0_26_321
*737 FILLER_0_26_333
*738 FILLER_0_26_41
*739 FILLER_0_26_53
*740 FILLER_0_26_65
*741 FILLER_0_26_77
*742 FILLER_0_26_83
*743 FILLER_0_26_85
*744 FILLER_0_26_97
*745 FILLER_0_27_105
*746 FILLER_0_27_111
*747 FILLER_0_27_113
*748 FILLER_0_27_125
*749 FILLER_0_27_137
*750 FILLER_0_27_149
*751 FILLER_0_27_15
*752 FILLER_0_27_161
*753 FILLER_0_27_167
*754 FILLER_0_27_169
*755 FILLER_0_27_181
*756 FILLER_0_27_193
*757 FILLER_0_27_205
*758 FILLER_0_27_217
*759 FILLER_0_27_223
*760 FILLER_0_27_225
*761 FILLER_0_27_237
*762 FILLER_0_27_249
*763 FILLER_0_27_261
*764 FILLER_0_27_27
*765 FILLER_0_27_273
*766 FILLER_0_27_279
*767 FILLER_0_27_281
*768 FILLER_0_27_293
*769 FILLER_0_27_3
*770 FILLER_0_27_305
*771 FILLER_0_27_317
*772 FILLER_0_27_329
*773 FILLER_0_27_39
*774 FILLER_0_27_51
*775 FILLER_0_27_55
*776 FILLER_0_27_57
*777 FILLER_0_27_69
*778 FILLER_0_27_81
*779 FILLER_0_27_93
*780 FILLER_0_28_109
*781 FILLER_0_28_121
*782 FILLER_0_28_133
*783 FILLER_0_28_139
*784 FILLER_0_28_141
*785 FILLER_0_28_15
*786 FILLER_0_28_153
*787 FILLER_0_28_165
*788 FILLER_0_28_177
*789 FILLER_0_28_189
*790 FILLER_0_28_195
*791 FILLER_0_28_197
*792 FILLER_0_28_209
*793 FILLER_0_28_221
*794 FILLER_0_28_233
*795 FILLER_0_28_245
*796 FILLER_0_28_251
*797 FILLER_0_28_253
*798 FILLER_0_28_265
*799 FILLER_0_28_27
*800 FILLER_0_28_277
*801 FILLER_0_28_289
*802 FILLER_0_28_29
*803 FILLER_0_28_3
*804 FILLER_0_28_301
*805 FILLER_0_28_307
*806 FILLER_0_28_309
*807 FILLER_0_28_321
*808 FILLER_0_28_333
*809 FILLER_0_28_41
*810 FILLER_0_28_53
*811 FILLER_0_28_65
*812 FILLER_0_28_77
*813 FILLER_0_28_83
*814 FILLER_0_28_85
*815 FILLER_0_28_97
*816 FILLER_0_29_105
*817 FILLER_0_29_111
*818 FILLER_0_29_113
*819 FILLER_0_29_125
*820 FILLER_0_29_137
*821 FILLER_0_29_149
*822 FILLER_0_29_15
*823 FILLER_0_29_161
*824 FILLER_0_29_167
*825 FILLER_0_29_169
*826 FILLER_0_29_181
*827 FILLER_0_29_193
*828 FILLER_0_29_205
*829 FILLER_0_29_217
*830 FILLER_0_29_223
*831 FILLER_0_29_225
*832 FILLER_0_29_237
*833 FILLER_0_29_249
*834 FILLER_0_29_261
*835 FILLER_0_29_27
*836 FILLER_0_29_273
*837 FILLER_0_29_279
*838 FILLER_0_29_281
*839 FILLER_0_29_293
*840 FILLER_0_29_3
*841 FILLER_0_29_305
*842 FILLER_0_29_317
*843 FILLER_0_29_329
*844 FILLER_0_29_39
*845 FILLER_0_29_51
*846 FILLER_0_29_55
*847 FILLER_0_29_57
*848 FILLER_0_29_69
*849 FILLER_0_29_81
*850 FILLER_0_29_93
*851 FILLER_0_2_109
*852 FILLER_0_2_121
*853 FILLER_0_2_133
*854 FILLER_0_2_139
*855 FILLER_0_2_141
*856 FILLER_0_2_15
*857 FILLER_0_2_153
*858 FILLER_0_2_165
*859 FILLER_0_2_177
*860 FILLER_0_2_189
*861 FILLER_0_2_195
*862 FILLER_0_2_197
*863 FILLER_0_2_209
*864 FILLER_0_2_221
*865 FILLER_0_2_233
*866 FILLER_0_2_245
*867 FILLER_0_2_251
*868 FILLER_0_2_253
*869 FILLER_0_2_265
*870 FILLER_0_2_27
*871 FILLER_0_2_277
*872 FILLER_0_2_289
*873 FILLER_0_2_29
*874 FILLER_0_2_3
*875 FILLER_0_2_301
*876 FILLER_0_2_307
*877 FILLER_0_2_309
*878 FILLER_0_2_321
*879 FILLER_0_2_333
*880 FILLER_0_2_41
*881 FILLER_0_2_53
*882 FILLER_0_2_65
*883 FILLER_0_2_77
*884 FILLER_0_2_83
*885 FILLER_0_2_85
*886 FILLER_0_2_97
*887 FILLER_0_30_109
*888 FILLER_0_30_121
*889 FILLER_0_30_133
*890 FILLER_0_30_139
*891 FILLER_0_30_141
*892 FILLER_0_30_15
*893 FILLER_0_30_153
*894 FILLER_0_30_165
*895 FILLER_0_30_177
*896 FILLER_0_30_189
*897 FILLER_0_30_195
*898 FILLER_0_30_197
*899 FILLER_0_30_209
*900 FILLER_0_30_221
*901 FILLER_0_30_233
*902 FILLER_0_30_245
*903 FILLER_0_30_251
*904 FILLER_0_30_253
*905 FILLER_0_30_265
*906 FILLER_0_30_27
*907 FILLER_0_30_277
*908 FILLER_0_30_289
*909 FILLER_0_30_29
*910 FILLER_0_30_3
*911 FILLER_0_30_301
*912 FILLER_0_30_307
*913 FILLER_0_30_309
*914 FILLER_0_30_321
*915 FILLER_0_30_333
*916 FILLER_0_30_41
*917 FILLER_0_30_53
*918 FILLER_0_30_65
*919 FILLER_0_30_77
*920 FILLER_0_30_83
*921 FILLER_0_30_85
*922 FILLER_0_30_97
*923 FILLER_0_31_105
*924 FILLER_0_31_111
*925 FILLER_0_31_113
*926 FILLER_0_31_125
*927 FILLER_0_31_137
*928 FILLER_0_31_149
*929 FILLER_0_31_15
*930 FILLER_0_31_161
*931 FILLER_0_31_167
*932 FILLER_0_31_169
*933 FILLER_0_31_181
*934 FILLER_0_31_193
*935 FILLER_0_31_205
*936 FILLER_0_31_217
*937 FILLER_0_31_223
*938 FILLER_0_31_225
*939 FILLER_0_31_237
*940 FILLER_0_31_249
*941 FILLER_0_31_261
*942 FILLER_0_31_27
*943 FILLER_0_31_273
*944 FILLER_0_31_279
*945 FILLER_0_31_281
*946 FILLER_0_31_293
*947 FILLER_0_31_3
*948 FILLER_0_31_305
*949 FILLER_0_31_317
*950 FILLER_0_31_329
*951 FILLER_0_31_39
*952 FILLER_0_31_51
*953 FILLER_0_31_55
*954 FILLER_0_31_57
*955 FILLER_0_31_69
*956 FILLER_0_31_81
*957 FILLER_0_31_93
*958 FILLER_0_32_109
*959 FILLER_0_32_121
*960 FILLER_0_32_133
*961 FILLER_0_32_139
*962 FILLER_0_32_141
*963 FILLER_0_32_15
*964 FILLER_0_32_153
*965 FILLER_0_32_165
*966 FILLER_0_32_177
*967 FILLER_0_32_189
*968 FILLER_0_32_195
*969 FILLER_0_32_197
*970 FILLER_0_32_209
*971 FILLER_0_32_221
*972 FILLER_0_32_233
*973 FILLER_0_32_245
*974 FILLER_0_32_251
*975 FILLER_0_32_253
*976 FILLER_0_32_265
*977 FILLER_0_32_27
*978 FILLER_0_32_277
*979 FILLER_0_32_289
*980 FILLER_0_32_29
*981 FILLER_0_32_3
*982 FILLER_0_32_301
*983 FILLER_0_32_307
*984 FILLER_0_32_309
*985 FILLER_0_32_321
*986 FILLER_0_32_333
*987 FILLER_0_32_41
*988 FILLER_0_32_53
*989 FILLER_0_32_65
*990 FILLER_0_32_77
*991 FILLER_0_32_83
*992 FILLER_0_32_85
*993 FILLER_0_32_97
*994 FILLER_0_33_105
*995 FILLER_0_33_111
*996 FILLER_0_33_113
*997 FILLER_0_33_125
*998 FILLER_0_33_137
*999 FILLER_0_33_149
*1000 FILLER_0_33_15
*1001 FILLER_0_33_161
*1002 FILLER_0_33_167
*1003 FILLER_0_33_169
*1004 FILLER_0_33_181
*1005 FILLER_0_33_193
*1006 FILLER_0_33_205
*1007 FILLER_0_33_217
*1008 FILLER_0_33_223
*1009 FILLER_0_33_225
*1010 FILLER_0_33_237
*1011 FILLER_0_33_249
*1012 FILLER_0_33_261
*1013 FILLER_0_33_27
*1014 FILLER_0_33_273
*1015 FILLER_0_33_279
*1016 FILLER_0_33_281
*1017 FILLER_0_33_293
*1018 FILLER_0_33_3
*1019 FILLER_0_33_305
*1020 FILLER_0_33_317
*1021 FILLER_0_33_329
*1022 FILLER_0_33_39
*1023 FILLER_0_33_51
*1024 FILLER_0_33_55
*1025 FILLER_0_33_57
*1026 FILLER_0_33_69
*1027 FILLER_0_33_81
*1028 FILLER_0_33_93
*1029 FILLER_0_34_109
*1030 FILLER_0_34_121
*1031 FILLER_0_34_133
*1032 FILLER_0_34_139
*1033 FILLER_0_34_141
*1034 FILLER_0_34_15
*1035 FILLER_0_34_153
*1036 FILLER_0_34_165
*1037 FILLER_0_34_177
*1038 FILLER_0_34_189
*1039 FILLER_0_34_195
*1040 FILLER_0_34_197
*1041 FILLER_0_34_209
*1042 FILLER_0_34_221
*1043 FILLER_0_34_233
*1044 FILLER_0_34_245
*1045 FILLER_0_34_251
*1046 FILLER_0_34_253
*1047 FILLER_0_34_265
*1048 FILLER_0_34_27
*1049 FILLER_0_34_277
*1050 FILLER_0_34_289
*1051 FILLER_0_34_29
*1052 FILLER_0_34_3
*1053 FILLER_0_34_301
*1054 FILLER_0_34_307
*1055 FILLER_0_34_309
*1056 FILLER_0_34_321
*1057 FILLER_0_34_333
*1058 FILLER_0_34_41
*1059 FILLER_0_34_53
*1060 FILLER_0_34_65
*1061 FILLER_0_34_77
*1062 FILLER_0_34_83
*1063 FILLER_0_34_85
*1064 FILLER_0_34_97
*1065 FILLER_0_35_105
*1066 FILLER_0_35_111
*1067 FILLER_0_35_113
*1068 FILLER_0_35_125
*1069 FILLER_0_35_137
*1070 FILLER_0_35_149
*1071 FILLER_0_35_15
*1072 FILLER_0_35_161
*1073 FILLER_0_35_167
*1074 FILLER_0_35_169
*1075 FILLER_0_35_181
*1076 FILLER_0_35_193
*1077 FILLER_0_35_205
*1078 FILLER_0_35_217
*1079 FILLER_0_35_223
*1080 FILLER_0_35_225
*1081 FILLER_0_35_237
*1082 FILLER_0_35_249
*1083 FILLER_0_35_261
*1084 FILLER_0_35_27
*1085 FILLER_0_35_273
*1086 FILLER_0_35_279
*1087 FILLER_0_35_281
*1088 FILLER_0_35_293
*1089 FILLER_0_35_3
*1090 FILLER_0_35_305
*1091 FILLER_0_35_317
*1092 FILLER_0_35_329
*1093 FILLER_0_35_39
*1094 FILLER_0_35_51
*1095 FILLER_0_35_55
*1096 FILLER_0_35_57
*1097 FILLER_0_35_69
*1098 FILLER_0_35_81
*1099 FILLER_0_35_93
*1100 FILLER_0_36_109
*1101 FILLER_0_36_121
*1102 FILLER_0_36_133
*1103 FILLER_0_36_139
*1104 FILLER_0_36_141
*1105 FILLER_0_36_15
*1106 FILLER_0_36_153
*1107 FILLER_0_36_165
*1108 FILLER_0_36_169
*1109 FILLER_0_36_173
*1110 FILLER_0_36_185
*1111 FILLER_0_36_193
*1112 FILLER_0_36_197
*1113 FILLER_0_36_209
*1114 FILLER_0_36_221
*1115 FILLER_0_36_233
*1116 FILLER_0_36_245
*1117 FILLER_0_36_251
*1118 FILLER_0_36_253
*1119 FILLER_0_36_265
*1120 FILLER_0_36_27
*1121 FILLER_0_36_277
*1122 FILLER_0_36_289
*1123 FILLER_0_36_29
*1124 FILLER_0_36_3
*1125 FILLER_0_36_301
*1126 FILLER_0_36_307
*1127 FILLER_0_36_309
*1128 FILLER_0_36_321
*1129 FILLER_0_36_333
*1130 FILLER_0_36_41
*1131 FILLER_0_36_53
*1132 FILLER_0_36_65
*1133 FILLER_0_36_77
*1134 FILLER_0_36_83
*1135 FILLER_0_36_85
*1136 FILLER_0_36_97
*1137 FILLER_0_37_105
*1138 FILLER_0_37_111
*1139 FILLER_0_37_113
*1140 FILLER_0_37_125
*1141 FILLER_0_37_137
*1142 FILLER_0_37_149
*1143 FILLER_0_37_15
*1144 FILLER_0_37_169
*1145 FILLER_0_37_180
*1146 FILLER_0_37_189
*1147 FILLER_0_37_201
*1148 FILLER_0_37_213
*1149 FILLER_0_37_221
*1150 FILLER_0_37_225
*1151 FILLER_0_37_237
*1152 FILLER_0_37_249
*1153 FILLER_0_37_261
*1154 FILLER_0_37_27
*1155 FILLER_0_37_273
*1156 FILLER_0_37_279
*1157 FILLER_0_37_281
*1158 FILLER_0_37_293
*1159 FILLER_0_37_3
*1160 FILLER_0_37_305
*1161 FILLER_0_37_313
*1162 FILLER_0_37_318
*1163 FILLER_0_37_330
*1164 FILLER_0_37_334
*1165 FILLER_0_37_39
*1166 FILLER_0_37_51
*1167 FILLER_0_37_55
*1168 FILLER_0_37_57
*1169 FILLER_0_37_69
*1170 FILLER_0_37_81
*1171 FILLER_0_37_93
*1172 FILLER_0_38_10
*1173 FILLER_0_38_106
*1174 FILLER_0_38_110
*1175 FILLER_0_38_113
*1176 FILLER_0_38_121
*1177 FILLER_0_38_126
*1178 FILLER_0_38_135
*1179 FILLER_0_38_144
*1180 FILLER_0_38_148
*1181 FILLER_0_38_153
*1182 FILLER_0_38_181
*1183 FILLER_0_38_194
*1184 FILLER_0_38_200
*1185 FILLER_0_38_206
*1186 FILLER_0_38_218
*1187 FILLER_0_38_222
*1188 FILLER_0_38_225
*1189 FILLER_0_38_233
*1190 FILLER_0_38_238
*1191 FILLER_0_38_250
*1192 FILLER_0_38_256
*1193 FILLER_0_38_263
*1194 FILLER_0_38_269
*1195 FILLER_0_38_287
*1196 FILLER_0_38_29
*1197 FILLER_0_38_294
*1198 FILLER_0_38_298
*1199 FILLER_0_38_3
*1200 FILLER_0_38_302
*1201 FILLER_0_38_328
*1202 FILLER_0_38_334
*1203 FILLER_0_38_36
*1204 FILLER_0_38_44
*1205 FILLER_0_38_52
*1206 FILLER_0_38_61
*1207 FILLER_0_38_73
*1208 FILLER_0_38_78
*1209 FILLER_0_38_85
*1210 FILLER_0_38_94
*1211 FILLER_0_3_105
*1212 FILLER_0_3_111
*1213 FILLER_0_3_113
*1214 FILLER_0_3_125
*1215 FILLER_0_3_137
*1216 FILLER_0_3_149
*1217 FILLER_0_3_15
*1218 FILLER_0_3_161
*1219 FILLER_0_3_167
*1220 FILLER_0_3_169
*1221 FILLER_0_3_181
*1222 FILLER_0_3_193
*1223 FILLER_0_3_205
*1224 FILLER_0_3_217
*1225 FILLER_0_3_223
*1226 FILLER_0_3_225
*1227 FILLER_0_3_237
*1228 FILLER_0_3_249
*1229 FILLER_0_3_261
*1230 FILLER_0_3_27
*1231 FILLER_0_3_273
*1232 FILLER_0_3_279
*1233 FILLER_0_3_281
*1234 FILLER_0_3_293
*1235 FILLER_0_3_3
*1236 FILLER_0_3_305
*1237 FILLER_0_3_317
*1238 FILLER_0_3_329
*1239 FILLER_0_3_39
*1240 FILLER_0_3_51
*1241 FILLER_0_3_55
*1242 FILLER_0_3_57
*1243 FILLER_0_3_69
*1244 FILLER_0_3_81
*1245 FILLER_0_3_93
*1246 FILLER_0_4_109
*1247 FILLER_0_4_121
*1248 FILLER_0_4_133
*1249 FILLER_0_4_139
*1250 FILLER_0_4_141
*1251 FILLER_0_4_15
*1252 FILLER_0_4_153
*1253 FILLER_0_4_165
*1254 FILLER_0_4_177
*1255 FILLER_0_4_189
*1256 FILLER_0_4_195
*1257 FILLER_0_4_197
*1258 FILLER_0_4_209
*1259 FILLER_0_4_221
*1260 FILLER_0_4_233
*1261 FILLER_0_4_245
*1262 FILLER_0_4_251
*1263 FILLER_0_4_253
*1264 FILLER_0_4_265
*1265 FILLER_0_4_27
*1266 FILLER_0_4_277
*1267 FILLER_0_4_289
*1268 FILLER_0_4_29
*1269 FILLER_0_4_3
*1270 FILLER_0_4_301
*1271 FILLER_0_4_307
*1272 FILLER_0_4_309
*1273 FILLER_0_4_321
*1274 FILLER_0_4_333
*1275 FILLER_0_4_41
*1276 FILLER_0_4_53
*1277 FILLER_0_4_65
*1278 FILLER_0_4_77
*1279 FILLER_0_4_83
*1280 FILLER_0_4_85
*1281 FILLER_0_4_97
*1282 FILLER_0_5_105
*1283 FILLER_0_5_111
*1284 FILLER_0_5_113
*1285 FILLER_0_5_125
*1286 FILLER_0_5_137
*1287 FILLER_0_5_149
*1288 FILLER_0_5_15
*1289 FILLER_0_5_161
*1290 FILLER_0_5_167
*1291 FILLER_0_5_169
*1292 FILLER_0_5_181
*1293 FILLER_0_5_193
*1294 FILLER_0_5_205
*1295 FILLER_0_5_217
*1296 FILLER_0_5_223
*1297 FILLER_0_5_225
*1298 FILLER_0_5_237
*1299 FILLER_0_5_249
*1300 FILLER_0_5_261
*1301 FILLER_0_5_27
*1302 FILLER_0_5_273
*1303 FILLER_0_5_279
*1304 FILLER_0_5_281
*1305 FILLER_0_5_293
*1306 FILLER_0_5_3
*1307 FILLER_0_5_305
*1308 FILLER_0_5_317
*1309 FILLER_0_5_329
*1310 FILLER_0_5_39
*1311 FILLER_0_5_51
*1312 FILLER_0_5_55
*1313 FILLER_0_5_57
*1314 FILLER_0_5_69
*1315 FILLER_0_5_81
*1316 FILLER_0_5_93
*1317 FILLER_0_6_109
*1318 FILLER_0_6_121
*1319 FILLER_0_6_133
*1320 FILLER_0_6_139
*1321 FILLER_0_6_141
*1322 FILLER_0_6_15
*1323 FILLER_0_6_153
*1324 FILLER_0_6_165
*1325 FILLER_0_6_177
*1326 FILLER_0_6_189
*1327 FILLER_0_6_195
*1328 FILLER_0_6_197
*1329 FILLER_0_6_209
*1330 FILLER_0_6_221
*1331 FILLER_0_6_233
*1332 FILLER_0_6_245
*1333 FILLER_0_6_251
*1334 FILLER_0_6_253
*1335 FILLER_0_6_265
*1336 FILLER_0_6_27
*1337 FILLER_0_6_277
*1338 FILLER_0_6_289
*1339 FILLER_0_6_29
*1340 FILLER_0_6_3
*1341 FILLER_0_6_301
*1342 FILLER_0_6_307
*1343 FILLER_0_6_309
*1344 FILLER_0_6_321
*1345 FILLER_0_6_333
*1346 FILLER_0_6_41
*1347 FILLER_0_6_53
*1348 FILLER_0_6_65
*1349 FILLER_0_6_77
*1350 FILLER_0_6_83
*1351 FILLER_0_6_85
*1352 FILLER_0_6_97
*1353 FILLER_0_7_105
*1354 FILLER_0_7_111
*1355 FILLER_0_7_113
*1356 FILLER_0_7_125
*1357 FILLER_0_7_137
*1358 FILLER_0_7_149
*1359 FILLER_0_7_15
*1360 FILLER_0_7_161
*1361 FILLER_0_7_167
*1362 FILLER_0_7_169
*1363 FILLER_0_7_181
*1364 FILLER_0_7_193
*1365 FILLER_0_7_205
*1366 FILLER_0_7_217
*1367 FILLER_0_7_223
*1368 FILLER_0_7_225
*1369 FILLER_0_7_237
*1370 FILLER_0_7_249
*1371 FILLER_0_7_261
*1372 FILLER_0_7_27
*1373 FILLER_0_7_273
*1374 FILLER_0_7_279
*1375 FILLER_0_7_281
*1376 FILLER_0_7_293
*1377 FILLER_0_7_3
*1378 FILLER_0_7_305
*1379 FILLER_0_7_317
*1380 FILLER_0_7_329
*1381 FILLER_0_7_39
*1382 FILLER_0_7_51
*1383 FILLER_0_7_55
*1384 FILLER_0_7_57
*1385 FILLER_0_7_69
*1386 FILLER_0_7_81
*1387 FILLER_0_7_93
*1388 FILLER_0_8_109
*1389 FILLER_0_8_121
*1390 FILLER_0_8_133
*1391 FILLER_0_8_139
*1392 FILLER_0_8_141
*1393 FILLER_0_8_15
*1394 FILLER_0_8_153
*1395 FILLER_0_8_165
*1396 FILLER_0_8_177
*1397 FILLER_0_8_189
*1398 FILLER_0_8_195
*1399 FILLER_0_8_197
*1400 FILLER_0_8_209
*1401 FILLER_0_8_221
*1402 FILLER_0_8_233
*1403 FILLER_0_8_245
*1404 FILLER_0_8_251
*1405 FILLER_0_8_253
*1406 FILLER_0_8_265
*1407 FILLER_0_8_27
*1408 FILLER_0_8_277
*1409 FILLER_0_8_289
*1410 FILLER_0_8_29
*1411 FILLER_0_8_3
*1412 FILLER_0_8_301
*1413 FILLER_0_8_307
*1414 FILLER_0_8_309
*1415 FILLER_0_8_321
*1416 FILLER_0_8_333
*1417 FILLER_0_8_41
*1418 FILLER_0_8_53
*1419 FILLER_0_8_65
*1420 FILLER_0_8_77
*1421 FILLER_0_8_83
*1422 FILLER_0_8_85
*1423 FILLER_0_8_97
*1424 FILLER_0_9_105
*1425 FILLER_0_9_111
*1426 FILLER_0_9_113
*1427 FILLER_0_9_125
*1428 FILLER_0_9_137
*1429 FILLER_0_9_149
*1430 FILLER_0_9_15
*1431 FILLER_0_9_161
*1432 FILLER_0_9_167
*1433 FILLER_0_9_169
*1434 FILLER_0_9_181
*1435 FILLER_0_9_193
*1436 FILLER_0_9_205
*1437 FILLER_0_9_217
*1438 FILLER_0_9_223
*1439 FILLER_0_9_225
*1440 FILLER_0_9_237
*1441 FILLER_0_9_249
*1442 FILLER_0_9_261
*1443 FILLER_0_9_27
*1444 FILLER_0_9_273
*1445 FILLER_0_9_279
*1446 FILLER_0_9_281
*1447 FILLER_0_9_293
*1448 FILLER_0_9_3
*1449 FILLER_0_9_305
*1450 FILLER_0_9_317
*1451 FILLER_0_9_329
*1452 FILLER_0_9_39
*1453 FILLER_0_9_51
*1454 FILLER_0_9_55
*1455 FILLER_0_9_57
*1456 FILLER_0_9_69
*1457 FILLER_0_9_81
*1458 FILLER_0_9_93