*SPEF "ieee 1481-1999"
*DESIGN "tt_um_wokwi_394425710650108929"
*DATE "15:48:29 Saturday April 06, 2024"
*VENDOR "The OpenROAD Project"
*PROGRAM "OpenROAD"
*VERSION "0889970d1790a2617e69f253221b8bd7626e51dc"
*DESIGN_FLOW "NAME_SCOPE LOCAL" "PIN_CAP NONE"
*DIVIDER /
*DELIMITER :
*BUS_DELIMITER []
*T_UNIT 1 NS
*C_UNIT 1 PF
*R_UNIT 1 OHM
*L_UNIT 1 HENRY

*NAME_MAP
*3 clk
*4 ena
*5 rst_n
*6 ui_in[0]
*7 ui_in[1]
*8 ui_in[2]
*9 ui_in[3]
*10 ui_in[4]
*11 ui_in[5]
*12 ui_in[6]
*13 ui_in[7]
*14 uio_in[0]
*15 uio_in[1]
*16 uio_in[2]
*17 uio_in[3]
*18 uio_in[4]
*19 uio_in[5]
*20 uio_in[6]
*21 uio_in[7]
*22 net8
*23 net9
*24 net10
*25 net11
*26 net12
*27 net13
*28 net14
*29 net15
*30 net16
*31 net17
*32 net18
*33 net19
*34 net20
*35 net21
*36 net22
*37 net23
*38 uo_out[0]
*39 uo_out[1]
*40 uo_out[2]
*41 uo_out[3]
*42 uo_out[4]
*43 uo_out[5]
*44 uo_out[6]
*45 uo_out[7]
*46 net1
*47 net2
*48 net3
*49 net4
*50 net5
*51 net6
*52 net7
*53 not1\.out
*54 not2\.out
*55 not3\.out
*56 not4\.out
*57 not5\.out
*58 not6\.out
*59 not7\.out
*60 FILLER_0_0_109
*61 FILLER_0_0_113
*62 FILLER_0_0_125
*63 FILLER_0_0_137
*64 FILLER_0_0_141
*65 FILLER_0_0_15
*66 FILLER_0_0_153
*67 FILLER_0_0_165
*68 FILLER_0_0_169
*69 FILLER_0_0_181
*70 FILLER_0_0_193
*71 FILLER_0_0_197
*72 FILLER_0_0_209
*73 FILLER_0_0_221
*74 FILLER_0_0_225
*75 FILLER_0_0_237
*76 FILLER_0_0_249
*77 FILLER_0_0_253
*78 FILLER_0_0_265
*79 FILLER_0_0_27
*80 FILLER_0_0_277
*81 FILLER_0_0_281
*82 FILLER_0_0_29
*83 FILLER_0_0_293
*84 FILLER_0_0_3
*85 FILLER_0_0_305
*86 FILLER_0_0_309
*87 FILLER_0_0_321
*88 FILLER_0_0_333
*89 FILLER_0_0_41
*90 FILLER_0_0_53
*91 FILLER_0_0_57
*92 FILLER_0_0_69
*93 FILLER_0_0_81
*94 FILLER_0_0_85
*95 FILLER_0_0_97
*96 FILLER_0_10_109
*97 FILLER_0_10_121
*98 FILLER_0_10_133
*99 FILLER_0_10_139
*100 FILLER_0_10_141
*101 FILLER_0_10_15
*102 FILLER_0_10_153
*103 FILLER_0_10_165
*104 FILLER_0_10_177
*105 FILLER_0_10_189
*106 FILLER_0_10_195
*107 FILLER_0_10_197
*108 FILLER_0_10_209
*109 FILLER_0_10_221
*110 FILLER_0_10_233
*111 FILLER_0_10_245
*112 FILLER_0_10_251
*113 FILLER_0_10_253
*114 FILLER_0_10_265
*115 FILLER_0_10_27
*116 FILLER_0_10_277
*117 FILLER_0_10_289
*118 FILLER_0_10_29
*119 FILLER_0_10_3
*120 FILLER_0_10_301
*121 FILLER_0_10_307
*122 FILLER_0_10_309
*123 FILLER_0_10_321
*124 FILLER_0_10_333
*125 FILLER_0_10_41
*126 FILLER_0_10_53
*127 FILLER_0_10_65
*128 FILLER_0_10_77
*129 FILLER_0_10_83
*130 FILLER_0_10_85
*131 FILLER_0_10_97
*132 FILLER_0_11_105
*133 FILLER_0_11_111
*134 FILLER_0_11_113
*135 FILLER_0_11_125
*136 FILLER_0_11_137
*137 FILLER_0_11_149
*138 FILLER_0_11_15
*139 FILLER_0_11_161
*140 FILLER_0_11_167
*141 FILLER_0_11_169
*142 FILLER_0_11_181
*143 FILLER_0_11_193
*144 FILLER_0_11_205
*145 FILLER_0_11_217
*146 FILLER_0_11_223
*147 FILLER_0_11_225
*148 FILLER_0_11_237
*149 FILLER_0_11_249
*150 FILLER_0_11_261
*151 FILLER_0_11_27
*152 FILLER_0_11_273
*153 FILLER_0_11_279
*154 FILLER_0_11_281
*155 FILLER_0_11_293
*156 FILLER_0_11_3
*157 FILLER_0_11_305
*158 FILLER_0_11_317
*159 FILLER_0_11_329
*160 FILLER_0_11_39
*161 FILLER_0_11_51
*162 FILLER_0_11_55
*163 FILLER_0_11_57
*164 FILLER_0_11_69
*165 FILLER_0_11_81
*166 FILLER_0_11_93
*167 FILLER_0_12_109
*168 FILLER_0_12_121
*169 FILLER_0_12_133
*170 FILLER_0_12_139
*171 FILLER_0_12_141
*172 FILLER_0_12_15
*173 FILLER_0_12_153
*174 FILLER_0_12_165
*175 FILLER_0_12_177
*176 FILLER_0_12_189
*177 FILLER_0_12_195
*178 FILLER_0_12_197
*179 FILLER_0_12_209
*180 FILLER_0_12_221
*181 FILLER_0_12_233
*182 FILLER_0_12_245
*183 FILLER_0_12_251
*184 FILLER_0_12_253
*185 FILLER_0_12_265
*186 FILLER_0_12_27
*187 FILLER_0_12_277
*188 FILLER_0_12_289
*189 FILLER_0_12_29
*190 FILLER_0_12_3
*191 FILLER_0_12_301
*192 FILLER_0_12_307
*193 FILLER_0_12_309
*194 FILLER_0_12_321
*195 FILLER_0_12_333
*196 FILLER_0_12_41
*197 FILLER_0_12_53
*198 FILLER_0_12_65
*199 FILLER_0_12_77
*200 FILLER_0_12_83
*201 FILLER_0_12_85
*202 FILLER_0_12_97
*203 FILLER_0_13_105
*204 FILLER_0_13_111
*205 FILLER_0_13_113
*206 FILLER_0_13_125
*207 FILLER_0_13_137
*208 FILLER_0_13_149
*209 FILLER_0_13_15
*210 FILLER_0_13_161
*211 FILLER_0_13_167
*212 FILLER_0_13_169
*213 FILLER_0_13_181
*214 FILLER_0_13_193
*215 FILLER_0_13_205
*216 FILLER_0_13_217
*217 FILLER_0_13_223
*218 FILLER_0_13_225
*219 FILLER_0_13_237
*220 FILLER_0_13_249
*221 FILLER_0_13_261
*222 FILLER_0_13_27
*223 FILLER_0_13_273
*224 FILLER_0_13_279
*225 FILLER_0_13_281
*226 FILLER_0_13_293
*227 FILLER_0_13_3
*228 FILLER_0_13_305
*229 FILLER_0_13_317
*230 FILLER_0_13_329
*231 FILLER_0_13_39
*232 FILLER_0_13_51
*233 FILLER_0_13_55
*234 FILLER_0_13_57
*235 FILLER_0_13_69
*236 FILLER_0_13_81
*237 FILLER_0_13_93
*238 FILLER_0_14_109
*239 FILLER_0_14_121
*240 FILLER_0_14_133
*241 FILLER_0_14_139
*242 FILLER_0_14_141
*243 FILLER_0_14_15
*244 FILLER_0_14_153
*245 FILLER_0_14_165
*246 FILLER_0_14_177
*247 FILLER_0_14_189
*248 FILLER_0_14_195
*249 FILLER_0_14_197
*250 FILLER_0_14_209
*251 FILLER_0_14_221
*252 FILLER_0_14_233
*253 FILLER_0_14_245
*254 FILLER_0_14_251
*255 FILLER_0_14_253
*256 FILLER_0_14_265
*257 FILLER_0_14_27
*258 FILLER_0_14_277
*259 FILLER_0_14_289
*260 FILLER_0_14_29
*261 FILLER_0_14_3
*262 FILLER_0_14_301
*263 FILLER_0_14_307
*264 FILLER_0_14_309
*265 FILLER_0_14_321
*266 FILLER_0_14_333
*267 FILLER_0_14_41
*268 FILLER_0_14_53
*269 FILLER_0_14_65
*270 FILLER_0_14_77
*271 FILLER_0_14_83
*272 FILLER_0_14_85
*273 FILLER_0_14_97
*274 FILLER_0_15_105
*275 FILLER_0_15_111
*276 FILLER_0_15_113
*277 FILLER_0_15_125
*278 FILLER_0_15_137
*279 FILLER_0_15_149
*280 FILLER_0_15_15
*281 FILLER_0_15_161
*282 FILLER_0_15_167
*283 FILLER_0_15_169
*284 FILLER_0_15_181
*285 FILLER_0_15_193
*286 FILLER_0_15_205
*287 FILLER_0_15_217
*288 FILLER_0_15_223
*289 FILLER_0_15_225
*290 FILLER_0_15_237
*291 FILLER_0_15_249
*292 FILLER_0_15_261
*293 FILLER_0_15_27
*294 FILLER_0_15_273
*295 FILLER_0_15_279
*296 FILLER_0_15_281
*297 FILLER_0_15_293
*298 FILLER_0_15_3
*299 FILLER_0_15_305
*300 FILLER_0_15_317
*301 FILLER_0_15_329
*302 FILLER_0_15_39
*303 FILLER_0_15_51
*304 FILLER_0_15_55
*305 FILLER_0_15_57
*306 FILLER_0_15_69
*307 FILLER_0_15_81
*308 FILLER_0_15_93
*309 FILLER_0_16_109
*310 FILLER_0_16_121
*311 FILLER_0_16_133
*312 FILLER_0_16_139
*313 FILLER_0_16_141
*314 FILLER_0_16_15
*315 FILLER_0_16_153
*316 FILLER_0_16_165
*317 FILLER_0_16_177
*318 FILLER_0_16_189
*319 FILLER_0_16_195
*320 FILLER_0_16_197
*321 FILLER_0_16_209
*322 FILLER_0_16_221
*323 FILLER_0_16_233
*324 FILLER_0_16_245
*325 FILLER_0_16_251
*326 FILLER_0_16_253
*327 FILLER_0_16_265
*328 FILLER_0_16_27
*329 FILLER_0_16_277
*330 FILLER_0_16_289
*331 FILLER_0_16_29
*332 FILLER_0_16_3
*333 FILLER_0_16_301
*334 FILLER_0_16_307
*335 FILLER_0_16_309
*336 FILLER_0_16_321
*337 FILLER_0_16_333
*338 FILLER_0_16_41
*339 FILLER_0_16_53
*340 FILLER_0_16_65
*341 FILLER_0_16_77
*342 FILLER_0_16_83
*343 FILLER_0_16_85
*344 FILLER_0_16_97
*345 FILLER_0_17_105
*346 FILLER_0_17_111
*347 FILLER_0_17_113
*348 FILLER_0_17_125
*349 FILLER_0_17_137
*350 FILLER_0_17_149
*351 FILLER_0_17_15
*352 FILLER_0_17_161
*353 FILLER_0_17_167
*354 FILLER_0_17_169
*355 FILLER_0_17_181
*356 FILLER_0_17_193
*357 FILLER_0_17_205
*358 FILLER_0_17_217
*359 FILLER_0_17_223
*360 FILLER_0_17_225
*361 FILLER_0_17_237
*362 FILLER_0_17_249
*363 FILLER_0_17_261
*364 FILLER_0_17_27
*365 FILLER_0_17_273
*366 FILLER_0_17_279
*367 FILLER_0_17_281
*368 FILLER_0_17_293
*369 FILLER_0_17_3
*370 FILLER_0_17_305
*371 FILLER_0_17_317
*372 FILLER_0_17_329
*373 FILLER_0_17_39
*374 FILLER_0_17_51
*375 FILLER_0_17_55
*376 FILLER_0_17_57
*377 FILLER_0_17_69
*378 FILLER_0_17_81
*379 FILLER_0_17_93
*380 FILLER_0_18_109
*381 FILLER_0_18_121
*382 FILLER_0_18_133
*383 FILLER_0_18_139
*384 FILLER_0_18_141
*385 FILLER_0_18_15
*386 FILLER_0_18_153
*387 FILLER_0_18_165
*388 FILLER_0_18_177
*389 FILLER_0_18_189
*390 FILLER_0_18_195
*391 FILLER_0_18_197
*392 FILLER_0_18_209
*393 FILLER_0_18_221
*394 FILLER_0_18_233
*395 FILLER_0_18_245
*396 FILLER_0_18_251
*397 FILLER_0_18_253
*398 FILLER_0_18_265
*399 FILLER_0_18_27
*400 FILLER_0_18_277
*401 FILLER_0_18_289
*402 FILLER_0_18_29
*403 FILLER_0_18_3
*404 FILLER_0_18_301
*405 FILLER_0_18_307
*406 FILLER_0_18_309
*407 FILLER_0_18_321
*408 FILLER_0_18_333
*409 FILLER_0_18_41
*410 FILLER_0_18_53
*411 FILLER_0_18_65
*412 FILLER_0_18_77
*413 FILLER_0_18_83
*414 FILLER_0_18_85
*415 FILLER_0_18_97
*416 FILLER_0_19_105
*417 FILLER_0_19_111
*418 FILLER_0_19_113
*419 FILLER_0_19_125
*420 FILLER_0_19_137
*421 FILLER_0_19_149
*422 FILLER_0_19_15
*423 FILLER_0_19_161
*424 FILLER_0_19_167
*425 FILLER_0_19_169
*426 FILLER_0_19_181
*427 FILLER_0_19_193
*428 FILLER_0_19_205
*429 FILLER_0_19_217
*430 FILLER_0_19_223
*431 FILLER_0_19_225
*432 FILLER_0_19_237
*433 FILLER_0_19_249
*434 FILLER_0_19_261
*435 FILLER_0_19_27
*436 FILLER_0_19_273
*437 FILLER_0_19_279
*438 FILLER_0_19_281
*439 FILLER_0_19_293
*440 FILLER_0_19_3
*441 FILLER_0_19_305
*442 FILLER_0_19_317
*443 FILLER_0_19_329
*444 FILLER_0_19_39
*445 FILLER_0_19_51
*446 FILLER_0_19_55
*447 FILLER_0_19_57
*448 FILLER_0_19_69
*449 FILLER_0_19_81
*450 FILLER_0_19_93
*451 FILLER_0_1_105
*452 FILLER_0_1_111
*453 FILLER_0_1_113
*454 FILLER_0_1_125
*455 FILLER_0_1_137
*456 FILLER_0_1_149
*457 FILLER_0_1_15
*458 FILLER_0_1_161
*459 FILLER_0_1_167
*460 FILLER_0_1_169
*461 FILLER_0_1_181
*462 FILLER_0_1_193
*463 FILLER_0_1_205
*464 FILLER_0_1_217
*465 FILLER_0_1_223
*466 FILLER_0_1_225
*467 FILLER_0_1_237
*468 FILLER_0_1_249
*469 FILLER_0_1_261
*470 FILLER_0_1_27
*471 FILLER_0_1_273
*472 FILLER_0_1_279
*473 FILLER_0_1_281
*474 FILLER_0_1_293
*475 FILLER_0_1_3
*476 FILLER_0_1_305
*477 FILLER_0_1_317
*478 FILLER_0_1_329
*479 FILLER_0_1_39
*480 FILLER_0_1_51
*481 FILLER_0_1_55
*482 FILLER_0_1_57
*483 FILLER_0_1_69
*484 FILLER_0_1_81
*485 FILLER_0_1_93
*486 FILLER_0_20_109
*487 FILLER_0_20_121
*488 FILLER_0_20_133
*489 FILLER_0_20_139
*490 FILLER_0_20_141
*491 FILLER_0_20_15
*492 FILLER_0_20_153
*493 FILLER_0_20_165
*494 FILLER_0_20_177
*495 FILLER_0_20_189
*496 FILLER_0_20_195
*497 FILLER_0_20_197
*498 FILLER_0_20_209
*499 FILLER_0_20_221
*500 FILLER_0_20_233
*501 FILLER_0_20_245
*502 FILLER_0_20_251
*503 FILLER_0_20_253
*504 FILLER_0_20_265
*505 FILLER_0_20_27
*506 FILLER_0_20_277
*507 FILLER_0_20_289
*508 FILLER_0_20_29
*509 FILLER_0_20_3
*510 FILLER_0_20_301
*511 FILLER_0_20_307
*512 FILLER_0_20_309
*513 FILLER_0_20_321
*514 FILLER_0_20_333
*515 FILLER_0_20_41
*516 FILLER_0_20_53
*517 FILLER_0_20_65
*518 FILLER_0_20_77
*519 FILLER_0_20_83
*520 FILLER_0_20_85
*521 FILLER_0_20_97
*522 FILLER_0_21_105
*523 FILLER_0_21_111
*524 FILLER_0_21_113
*525 FILLER_0_21_125
*526 FILLER_0_21_137
*527 FILLER_0_21_149
*528 FILLER_0_21_15
*529 FILLER_0_21_161
*530 FILLER_0_21_167
*531 FILLER_0_21_169
*532 FILLER_0_21_181
*533 FILLER_0_21_193
*534 FILLER_0_21_205
*535 FILLER_0_21_217
*536 FILLER_0_21_223
*537 FILLER_0_21_225
*538 FILLER_0_21_237
*539 FILLER_0_21_249
*540 FILLER_0_21_261
*541 FILLER_0_21_27
*542 FILLER_0_21_273
*543 FILLER_0_21_279
*544 FILLER_0_21_281
*545 FILLER_0_21_293
*546 FILLER_0_21_3
*547 FILLER_0_21_305
*548 FILLER_0_21_317
*549 FILLER_0_21_329
*550 FILLER_0_21_39
*551 FILLER_0_21_51
*552 FILLER_0_21_55
*553 FILLER_0_21_57
*554 FILLER_0_21_69
*555 FILLER_0_21_81
*556 FILLER_0_21_93
*557 FILLER_0_22_109
*558 FILLER_0_22_121
*559 FILLER_0_22_133
*560 FILLER_0_22_139
*561 FILLER_0_22_141
*562 FILLER_0_22_15
*563 FILLER_0_22_153
*564 FILLER_0_22_165
*565 FILLER_0_22_177
*566 FILLER_0_22_189
*567 FILLER_0_22_195
*568 FILLER_0_22_197
*569 FILLER_0_22_209
*570 FILLER_0_22_221
*571 FILLER_0_22_233
*572 FILLER_0_22_245
*573 FILLER_0_22_251
*574 FILLER_0_22_253
*575 FILLER_0_22_265
*576 FILLER_0_22_27
*577 FILLER_0_22_277
*578 FILLER_0_22_289
*579 FILLER_0_22_29
*580 FILLER_0_22_3
*581 FILLER_0_22_301
*582 FILLER_0_22_307
*583 FILLER_0_22_309
*584 FILLER_0_22_321
*585 FILLER_0_22_333
*586 FILLER_0_22_41
*587 FILLER_0_22_53
*588 FILLER_0_22_65
*589 FILLER_0_22_77
*590 FILLER_0_22_83
*591 FILLER_0_22_85
*592 FILLER_0_22_97
*593 FILLER_0_23_105
*594 FILLER_0_23_111
*595 FILLER_0_23_113
*596 FILLER_0_23_125
*597 FILLER_0_23_137
*598 FILLER_0_23_149
*599 FILLER_0_23_15
*600 FILLER_0_23_161
*601 FILLER_0_23_167
*602 FILLER_0_23_169
*603 FILLER_0_23_181
*604 FILLER_0_23_193
*605 FILLER_0_23_205
*606 FILLER_0_23_217
*607 FILLER_0_23_223
*608 FILLER_0_23_225
*609 FILLER_0_23_237
*610 FILLER_0_23_249
*611 FILLER_0_23_261
*612 FILLER_0_23_27
*613 FILLER_0_23_273
*614 FILLER_0_23_279
*615 FILLER_0_23_281
*616 FILLER_0_23_293
*617 FILLER_0_23_3
*618 FILLER_0_23_305
*619 FILLER_0_23_317
*620 FILLER_0_23_329
*621 FILLER_0_23_39
*622 FILLER_0_23_51
*623 FILLER_0_23_55
*624 FILLER_0_23_57
*625 FILLER_0_23_69
*626 FILLER_0_23_81
*627 FILLER_0_23_93
*628 FILLER_0_24_109
*629 FILLER_0_24_121
*630 FILLER_0_24_133
*631 FILLER_0_24_139
*632 FILLER_0_24_141
*633 FILLER_0_24_15
*634 FILLER_0_24_153
*635 FILLER_0_24_165
*636 FILLER_0_24_177
*637 FILLER_0_24_189
*638 FILLER_0_24_195
*639 FILLER_0_24_197
*640 FILLER_0_24_209
*641 FILLER_0_24_221
*642 FILLER_0_24_233
*643 FILLER_0_24_245
*644 FILLER_0_24_251
*645 FILLER_0_24_253
*646 FILLER_0_24_265
*647 FILLER_0_24_27
*648 FILLER_0_24_277
*649 FILLER_0_24_289
*650 FILLER_0_24_29
*651 FILLER_0_24_3
*652 FILLER_0_24_301
*653 FILLER_0_24_307
*654 FILLER_0_24_309
*655 FILLER_0_24_321
*656 FILLER_0_24_333
*657 FILLER_0_24_41
*658 FILLER_0_24_53
*659 FILLER_0_24_65
*660 FILLER_0_24_77
*661 FILLER_0_24_83
*662 FILLER_0_24_85
*663 FILLER_0_24_97
*664 FILLER_0_25_105
*665 FILLER_0_25_111
*666 FILLER_0_25_113
*667 FILLER_0_25_125
*668 FILLER_0_25_137
*669 FILLER_0_25_149
*670 FILLER_0_25_15
*671 FILLER_0_25_161
*672 FILLER_0_25_167
*673 FILLER_0_25_169
*674 FILLER_0_25_181
*675 FILLER_0_25_193
*676 FILLER_0_25_205
*677 FILLER_0_25_217
*678 FILLER_0_25_223
*679 FILLER_0_25_225
*680 FILLER_0_25_237
*681 FILLER_0_25_249
*682 FILLER_0_25_261
*683 FILLER_0_25_27
*684 FILLER_0_25_273
*685 FILLER_0_25_279
*686 FILLER_0_25_281
*687 FILLER_0_25_293
*688 FILLER_0_25_3
*689 FILLER_0_25_305
*690 FILLER_0_25_317
*691 FILLER_0_25_329
*692 FILLER_0_25_39
*693 FILLER_0_25_51
*694 FILLER_0_25_55
*695 FILLER_0_25_57
*696 FILLER_0_25_69
*697 FILLER_0_25_81
*698 FILLER_0_25_93
*699 FILLER_0_26_109
*700 FILLER_0_26_121
*701 FILLER_0_26_133
*702 FILLER_0_26_139
*703 FILLER_0_26_141
*704 FILLER_0_26_15
*705 FILLER_0_26_153
*706 FILLER_0_26_165
*707 FILLER_0_26_177
*708 FILLER_0_26_189
*709 FILLER_0_26_195
*710 FILLER_0_26_197
*711 FILLER_0_26_209
*712 FILLER_0_26_221
*713 FILLER_0_26_233
*714 FILLER_0_26_245
*715 FILLER_0_26_251
*716 FILLER_0_26_253
*717 FILLER_0_26_265
*718 FILLER_0_26_27
*719 FILLER_0_26_277
*720 FILLER_0_26_289
*721 FILLER_0_26_29
*722 FILLER_0_26_3
*723 FILLER_0_26_301
*724 FILLER_0_26_307
*725 FILLER_0_26_309
*726 FILLER_0_26_321
*727 FILLER_0_26_333
*728 FILLER_0_26_41
*729 FILLER_0_26_53
*730 FILLER_0_26_65
*731 FILLER_0_26_77
*732 FILLER_0_26_83
*733 FILLER_0_26_85
*734 FILLER_0_26_97
*735 FILLER_0_27_105
*736 FILLER_0_27_111
*737 FILLER_0_27_113
*738 FILLER_0_27_125
*739 FILLER_0_27_137
*740 FILLER_0_27_149
*741 FILLER_0_27_15
*742 FILLER_0_27_161
*743 FILLER_0_27_167
*744 FILLER_0_27_169
*745 FILLER_0_27_181
*746 FILLER_0_27_193
*747 FILLER_0_27_205
*748 FILLER_0_27_217
*749 FILLER_0_27_223
*750 FILLER_0_27_225
*751 FILLER_0_27_237
*752 FILLER_0_27_249
*753 FILLER_0_27_261
*754 FILLER_0_27_27
*755 FILLER_0_27_273
*756 FILLER_0_27_279
*757 FILLER_0_27_281
*758 FILLER_0_27_293
*759 FILLER_0_27_3
*760 FILLER_0_27_305
*761 FILLER_0_27_317
*762 FILLER_0_27_329
*763 FILLER_0_27_39
*764 FILLER_0_27_51
*765 FILLER_0_27_55
*766 FILLER_0_27_57
*767 FILLER_0_27_69
*768 FILLER_0_27_81
*769 FILLER_0_27_93
*770 FILLER_0_28_109
*771 FILLER_0_28_121
*772 FILLER_0_28_133
*773 FILLER_0_28_139
*774 FILLER_0_28_141
*775 FILLER_0_28_15
*776 FILLER_0_28_153
*777 FILLER_0_28_165
*778 FILLER_0_28_177
*779 FILLER_0_28_189
*780 FILLER_0_28_195
*781 FILLER_0_28_197
*782 FILLER_0_28_209
*783 FILLER_0_28_221
*784 FILLER_0_28_233
*785 FILLER_0_28_245
*786 FILLER_0_28_251
*787 FILLER_0_28_253
*788 FILLER_0_28_265
*789 FILLER_0_28_27
*790 FILLER_0_28_277
*791 FILLER_0_28_289
*792 FILLER_0_28_29
*793 FILLER_0_28_3
*794 FILLER_0_28_301
*795 FILLER_0_28_307
*796 FILLER_0_28_309
*797 FILLER_0_28_321
*798 FILLER_0_28_333
*799 FILLER_0_28_41
*800 FILLER_0_28_53
*801 FILLER_0_28_65
*802 FILLER_0_28_77
*803 FILLER_0_28_83
*804 FILLER_0_28_85
*805 FILLER_0_28_97
*806 FILLER_0_29_105
*807 FILLER_0_29_111
*808 FILLER_0_29_113
*809 FILLER_0_29_125
*810 FILLER_0_29_137
*811 FILLER_0_29_149
*812 FILLER_0_29_15
*813 FILLER_0_29_161
*814 FILLER_0_29_167
*815 FILLER_0_29_169
*816 FILLER_0_29_181
*817 FILLER_0_29_193
*818 FILLER_0_29_205
*819 FILLER_0_29_217
*820 FILLER_0_29_223
*821 FILLER_0_29_225
*822 FILLER_0_29_237
*823 FILLER_0_29_249
*824 FILLER_0_29_261
*825 FILLER_0_29_27
*826 FILLER_0_29_273
*827 FILLER_0_29_279
*828 FILLER_0_29_281
*829 FILLER_0_29_293
*830 FILLER_0_29_3
*831 FILLER_0_29_305
*832 FILLER_0_29_317
*833 FILLER_0_29_329
*834 FILLER_0_29_39
*835 FILLER_0_29_51
*836 FILLER_0_29_55
*837 FILLER_0_29_57
*838 FILLER_0_29_69
*839 FILLER_0_29_81
*840 FILLER_0_29_93
*841 FILLER_0_2_109
*842 FILLER_0_2_121
*843 FILLER_0_2_133
*844 FILLER_0_2_139
*845 FILLER_0_2_141
*846 FILLER_0_2_15
*847 FILLER_0_2_153
*848 FILLER_0_2_165
*849 FILLER_0_2_177
*850 FILLER_0_2_189
*851 FILLER_0_2_195
*852 FILLER_0_2_197
*853 FILLER_0_2_209
*854 FILLER_0_2_221
*855 FILLER_0_2_233
*856 FILLER_0_2_245
*857 FILLER_0_2_251
*858 FILLER_0_2_253
*859 FILLER_0_2_265
*860 FILLER_0_2_27
*861 FILLER_0_2_277
*862 FILLER_0_2_289
*863 FILLER_0_2_29
*864 FILLER_0_2_3
*865 FILLER_0_2_301
*866 FILLER_0_2_307
*867 FILLER_0_2_309
*868 FILLER_0_2_321
*869 FILLER_0_2_333
*870 FILLER_0_2_41
*871 FILLER_0_2_53
*872 FILLER_0_2_65
*873 FILLER_0_2_77
*874 FILLER_0_2_83
*875 FILLER_0_2_85
*876 FILLER_0_2_97
*877 FILLER_0_30_109
*878 FILLER_0_30_121
*879 FILLER_0_30_133
*880 FILLER_0_30_139
*881 FILLER_0_30_141
*882 FILLER_0_30_15
*883 FILLER_0_30_153
*884 FILLER_0_30_165
*885 FILLER_0_30_177
*886 FILLER_0_30_189
*887 FILLER_0_30_195
*888 FILLER_0_30_197
*889 FILLER_0_30_209
*890 FILLER_0_30_221
*891 FILLER_0_30_233
*892 FILLER_0_30_245
*893 FILLER_0_30_251
*894 FILLER_0_30_253
*895 FILLER_0_30_265
*896 FILLER_0_30_27
*897 FILLER_0_30_277
*898 FILLER_0_30_289
*899 FILLER_0_30_29
*900 FILLER_0_30_3
*901 FILLER_0_30_301
*902 FILLER_0_30_307
*903 FILLER_0_30_309
*904 FILLER_0_30_321
*905 FILLER_0_30_333
*906 FILLER_0_30_41
*907 FILLER_0_30_53
*908 FILLER_0_30_65
*909 FILLER_0_30_77
*910 FILLER_0_30_83
*911 FILLER_0_30_85
*912 FILLER_0_30_97
*913 FILLER_0_31_105
*914 FILLER_0_31_111
*915 FILLER_0_31_113
*916 FILLER_0_31_125
*917 FILLER_0_31_137
*918 FILLER_0_31_149
*919 FILLER_0_31_15
*920 FILLER_0_31_161
*921 FILLER_0_31_167
*922 FILLER_0_31_169
*923 FILLER_0_31_181
*924 FILLER_0_31_193
*925 FILLER_0_31_205
*926 FILLER_0_31_217
*927 FILLER_0_31_223
*928 FILLER_0_31_225
*929 FILLER_0_31_237
*930 FILLER_0_31_249
*931 FILLER_0_31_261
*932 FILLER_0_31_27
*933 FILLER_0_31_273
*934 FILLER_0_31_279
*935 FILLER_0_31_281
*936 FILLER_0_31_293
*937 FILLER_0_31_3
*938 FILLER_0_31_305
*939 FILLER_0_31_317
*940 FILLER_0_31_329
*941 FILLER_0_31_39
*942 FILLER_0_31_51
*943 FILLER_0_31_55
*944 FILLER_0_31_57
*945 FILLER_0_31_69
*946 FILLER_0_31_81
*947 FILLER_0_31_93
*948 FILLER_0_32_109
*949 FILLER_0_32_121
*950 FILLER_0_32_133
*951 FILLER_0_32_139
*952 FILLER_0_32_141
*953 FILLER_0_32_15
*954 FILLER_0_32_153
*955 FILLER_0_32_165
*956 FILLER_0_32_177
*957 FILLER_0_32_189
*958 FILLER_0_32_195
*959 FILLER_0_32_197
*960 FILLER_0_32_209
*961 FILLER_0_32_221
*962 FILLER_0_32_233
*963 FILLER_0_32_245
*964 FILLER_0_32_251
*965 FILLER_0_32_253
*966 FILLER_0_32_265
*967 FILLER_0_32_27
*968 FILLER_0_32_277
*969 FILLER_0_32_289
*970 FILLER_0_32_29
*971 FILLER_0_32_3
*972 FILLER_0_32_301
*973 FILLER_0_32_307
*974 FILLER_0_32_309
*975 FILLER_0_32_321
*976 FILLER_0_32_333
*977 FILLER_0_32_41
*978 FILLER_0_32_53
*979 FILLER_0_32_65
*980 FILLER_0_32_77
*981 FILLER_0_32_83
*982 FILLER_0_32_85
*983 FILLER_0_32_97
*984 FILLER_0_33_105
*985 FILLER_0_33_111
*986 FILLER_0_33_113
*987 FILLER_0_33_125
*988 FILLER_0_33_137
*989 FILLER_0_33_149
*990 FILLER_0_33_15
*991 FILLER_0_33_161
*992 FILLER_0_33_167
*993 FILLER_0_33_169
*994 FILLER_0_33_181
*995 FILLER_0_33_193
*996 FILLER_0_33_205
*997 FILLER_0_33_217
*998 FILLER_0_33_223
*999 FILLER_0_33_225
*1000 FILLER_0_33_237
*1001 FILLER_0_33_249
*1002 FILLER_0_33_261
*1003 FILLER_0_33_27
*1004 FILLER_0_33_273
*1005 FILLER_0_33_279
*1006 FILLER_0_33_281
*1007 FILLER_0_33_293
*1008 FILLER_0_33_3
*1009 FILLER_0_33_305
*1010 FILLER_0_33_317
*1011 FILLER_0_33_329
*1012 FILLER_0_33_39
*1013 FILLER_0_33_51
*1014 FILLER_0_33_55
*1015 FILLER_0_33_57
*1016 FILLER_0_33_69
*1017 FILLER_0_33_81
*1018 FILLER_0_33_93
*1019 FILLER_0_34_109
*1020 FILLER_0_34_121
*1021 FILLER_0_34_133
*1022 FILLER_0_34_139
*1023 FILLER_0_34_141
*1024 FILLER_0_34_15
*1025 FILLER_0_34_153
*1026 FILLER_0_34_165
*1027 FILLER_0_34_177
*1028 FILLER_0_34_189
*1029 FILLER_0_34_195
*1030 FILLER_0_34_197
*1031 FILLER_0_34_209
*1032 FILLER_0_34_221
*1033 FILLER_0_34_233
*1034 FILLER_0_34_245
*1035 FILLER_0_34_251
*1036 FILLER_0_34_253
*1037 FILLER_0_34_265
*1038 FILLER_0_34_27
*1039 FILLER_0_34_277
*1040 FILLER_0_34_289
*1041 FILLER_0_34_29
*1042 FILLER_0_34_3
*1043 FILLER_0_34_301
*1044 FILLER_0_34_307
*1045 FILLER_0_34_309
*1046 FILLER_0_34_321
*1047 FILLER_0_34_333
*1048 FILLER_0_34_41
*1049 FILLER_0_34_53
*1050 FILLER_0_34_65
*1051 FILLER_0_34_77
*1052 FILLER_0_34_83
*1053 FILLER_0_34_85
*1054 FILLER_0_34_97
*1055 FILLER_0_35_105
*1056 FILLER_0_35_111
*1057 FILLER_0_35_113
*1058 FILLER_0_35_125
*1059 FILLER_0_35_137
*1060 FILLER_0_35_149
*1061 FILLER_0_35_15
*1062 FILLER_0_35_161
*1063 FILLER_0_35_167
*1064 FILLER_0_35_169
*1065 FILLER_0_35_181
*1066 FILLER_0_35_193
*1067 FILLER_0_35_205
*1068 FILLER_0_35_217
*1069 FILLER_0_35_223
*1070 FILLER_0_35_225
*1071 FILLER_0_35_237
*1072 FILLER_0_35_249
*1073 FILLER_0_35_261
*1074 FILLER_0_35_27
*1075 FILLER_0_35_273
*1076 FILLER_0_35_279
*1077 FILLER_0_35_281
*1078 FILLER_0_35_293
*1079 FILLER_0_35_3
*1080 FILLER_0_35_305
*1081 FILLER_0_35_317
*1082 FILLER_0_35_329
*1083 FILLER_0_35_39
*1084 FILLER_0_35_51
*1085 FILLER_0_35_55
*1086 FILLER_0_35_57
*1087 FILLER_0_35_69
*1088 FILLER_0_35_81
*1089 FILLER_0_35_93
*1090 FILLER_0_36_109
*1091 FILLER_0_36_121
*1092 FILLER_0_36_133
*1093 FILLER_0_36_139
*1094 FILLER_0_36_141
*1095 FILLER_0_36_15
*1096 FILLER_0_36_153
*1097 FILLER_0_36_165
*1098 FILLER_0_36_177
*1099 FILLER_0_36_189
*1100 FILLER_0_36_195
*1101 FILLER_0_36_197
*1102 FILLER_0_36_209
*1103 FILLER_0_36_221
*1104 FILLER_0_36_233
*1105 FILLER_0_36_245
*1106 FILLER_0_36_251
*1107 FILLER_0_36_253
*1108 FILLER_0_36_265
*1109 FILLER_0_36_27
*1110 FILLER_0_36_277
*1111 FILLER_0_36_289
*1112 FILLER_0_36_29
*1113 FILLER_0_36_3
*1114 FILLER_0_36_301
*1115 FILLER_0_36_307
*1116 FILLER_0_36_309
*1117 FILLER_0_36_321
*1118 FILLER_0_36_333
*1119 FILLER_0_36_41
*1120 FILLER_0_36_53
*1121 FILLER_0_36_65
*1122 FILLER_0_36_77
*1123 FILLER_0_36_83
*1124 FILLER_0_36_85
*1125 FILLER_0_36_97
*1126 FILLER_0_37_105
*1127 FILLER_0_37_111
*1128 FILLER_0_37_113
*1129 FILLER_0_37_125
*1130 FILLER_0_37_137
*1131 FILLER_0_37_149
*1132 FILLER_0_37_15
*1133 FILLER_0_37_157
*1134 FILLER_0_37_162
*1135 FILLER_0_37_185
*1136 FILLER_0_37_197
*1137 FILLER_0_37_209
*1138 FILLER_0_37_221
*1139 FILLER_0_37_225
*1140 FILLER_0_37_237
*1141 FILLER_0_37_249
*1142 FILLER_0_37_261
*1143 FILLER_0_37_27
*1144 FILLER_0_37_273
*1145 FILLER_0_37_279
*1146 FILLER_0_37_281
*1147 FILLER_0_37_293
*1148 FILLER_0_37_3
*1149 FILLER_0_37_305
*1150 FILLER_0_37_317
*1151 FILLER_0_37_329
*1152 FILLER_0_37_39
*1153 FILLER_0_37_51
*1154 FILLER_0_37_55
*1155 FILLER_0_37_57
*1156 FILLER_0_37_69
*1157 FILLER_0_37_81
*1158 FILLER_0_37_93
*1159 FILLER_0_38_10
*1160 FILLER_0_38_102
*1161 FILLER_0_38_106
*1162 FILLER_0_38_110
*1163 FILLER_0_38_113
*1164 FILLER_0_38_118
*1165 FILLER_0_38_122
*1166 FILLER_0_38_126
*1167 FILLER_0_38_138
*1168 FILLER_0_38_14
*1169 FILLER_0_38_141
*1170 FILLER_0_38_149
*1171 FILLER_0_38_156
*1172 FILLER_0_38_169
*1173 FILLER_0_38_179
*1174 FILLER_0_38_18
*1175 FILLER_0_38_185
*1176 FILLER_0_38_195
*1177 FILLER_0_38_203
*1178 FILLER_0_38_215
*1179 FILLER_0_38_22
*1180 FILLER_0_38_223
*1181 FILLER_0_38_225
*1182 FILLER_0_38_237
*1183 FILLER_0_38_249
*1184 FILLER_0_38_253
*1185 FILLER_0_38_262
*1186 FILLER_0_38_266
*1187 FILLER_0_38_270
*1188 FILLER_0_38_274
*1189 FILLER_0_38_278
*1190 FILLER_0_38_281
*1191 FILLER_0_38_286
*1192 FILLER_0_38_298
*1193 FILLER_0_38_302
*1194 FILLER_0_38_312
*1195 FILLER_0_38_318
*1196 FILLER_0_38_32
*1197 FILLER_0_38_330
*1198 FILLER_0_38_334
*1199 FILLER_0_38_38
*1200 FILLER_0_38_42
*1201 FILLER_0_38_46
*1202 FILLER_0_38_50
*1203 FILLER_0_38_54
*1204 FILLER_0_38_57
*1205 FILLER_0_38_6
*1206 FILLER_0_38_62
*1207 FILLER_0_38_66
*1208 FILLER_0_38_70
*1209 FILLER_0_38_74
*1210 FILLER_0_38_78
*1211 FILLER_0_38_88
*1212 FILLER_0_38_94
*1213 FILLER_0_38_98
*1214 FILLER_0_3_105
*1215 FILLER_0_3_111
*1216 FILLER_0_3_113
*1217 FILLER_0_3_125
*1218 FILLER_0_3_137
*1219 FILLER_0_3_149
*1220 FILLER_0_3_15
*1221 FILLER_0_3_161
*1222 FILLER_0_3_167
*1223 FILLER_0_3_169
*1224 FILLER_0_3_181
*1225 FILLER_0_3_193
*1226 FILLER_0_3_205
*1227 FILLER_0_3_217
*1228 FILLER_0_3_223
*1229 FILLER_0_3_225
*1230 FILLER_0_3_237
*1231 FILLER_0_3_249
*1232 FILLER_0_3_261
*1233 FILLER_0_3_27
*1234 FILLER_0_3_273
*1235 FILLER_0_3_279
*1236 FILLER_0_3_281
*1237 FILLER_0_3_293
*1238 FILLER_0_3_3
*1239 FILLER_0_3_305
*1240 FILLER_0_3_317
*1241 FILLER_0_3_329
*1242 FILLER_0_3_39
*1243 FILLER_0_3_51
*1244 FILLER_0_3_55
*1245 FILLER_0_3_57
*1246 FILLER_0_3_69
*1247 FILLER_0_3_81
*1248 FILLER_0_3_93
*1249 FILLER_0_4_109
*1250 FILLER_0_4_121
*1251 FILLER_0_4_133
*1252 FILLER_0_4_139
*1253 FILLER_0_4_141
*1254 FILLER_0_4_15
*1255 FILLER_0_4_153
*1256 FILLER_0_4_165
*1257 FILLER_0_4_177
*1258 FILLER_0_4_189
*1259 FILLER_0_4_195
*1260 FILLER_0_4_197
*1261 FILLER_0_4_209
*1262 FILLER_0_4_221
*1263 FILLER_0_4_233
*1264 FILLER_0_4_245
*1265 FILLER_0_4_251
*1266 FILLER_0_4_253
*1267 FILLER_0_4_265
*1268 FILLER_0_4_27
*1269 FILLER_0_4_277
*1270 FILLER_0_4_289
*1271 FILLER_0_4_29
*1272 FILLER_0_4_3
*1273 FILLER_0_4_301
*1274 FILLER_0_4_307
*1275 FILLER_0_4_309
*1276 FILLER_0_4_321
*1277 FILLER_0_4_333
*1278 FILLER_0_4_41
*1279 FILLER_0_4_53
*1280 FILLER_0_4_65
*1281 FILLER_0_4_77
*1282 FILLER_0_4_83
*1283 FILLER_0_4_85
*1284 FILLER_0_4_97
*1285 FILLER_0_5_105
*1286 FILLER_0_5_111
*1287 FILLER_0_5_113
*1288 FILLER_0_5_125
*1289 FILLER_0_5_137
*1290 FILLER_0_5_149
*1291 FILLER_0_5_15
*1292 FILLER_0_5_161
*1293 FILLER_0_5_167
*1294 FILLER_0_5_169
*1295 FILLER_0_5_181
*1296 FILLER_0_5_193
*1297 FILLER_0_5_205
*1298 FILLER_0_5_217
*1299 FILLER_0_5_223
*1300 FILLER_0_5_225
*1301 FILLER_0_5_237
*1302 FILLER_0_5_249
*1303 FILLER_0_5_261
*1304 FILLER_0_5_27
*1305 FILLER_0_5_273
*1306 FILLER_0_5_279
*1307 FILLER_0_5_281
*1308 FILLER_0_5_293
*1309 FILLER_0_5_3
*1310 FILLER_0_5_305
*1311 FILLER_0_5_317
*1312 FILLER_0_5_329
*1313 FILLER_0_5_39
*1314 FILLER_0_5_51
*1315 FILLER_0_5_55
*1316 FILLER_0_5_57
*1317 FILLER_0_5_69
*1318 FILLER_0_5_81
*1319 FILLER_0_5_93
*1320 FILLER_0_6_109
*1321 FILLER_0_6_121
*1322 FILLER_0_6_133
*1323 FILLER_0_6_139
*1324 FILLER_0_6_141
*1325 FILLER_0_6_15
*1326 FILLER_0_6_153
*1327 FILLER_0_6_165
*1328 FILLER_0_6_177
*1329 FILLER_0_6_189
*1330 FILLER_0_6_195
*1331 FILLER_0_6_197
*1332 FILLER_0_6_209
*1333 FILLER_0_6_221
*1334 FILLER_0_6_233
*1335 FILLER_0_6_245
*1336 FILLER_0_6_251
*1337 FILLER_0_6_253
*1338 FILLER_0_6_265
*1339 FILLER_0_6_27
*1340 FILLER_0_6_277
*1341 FILLER_0_6_289
*1342 FILLER_0_6_29
*1343 FILLER_0_6_3
*1344 FILLER_0_6_301
*1345 FILLER_0_6_307
*1346 FILLER_0_6_309
*1347 FILLER_0_6_321
*1348 FILLER_0_6_333
*1349 FILLER_0_6_41
*1350 FILLER_0_6_53
*1351 FILLER_0_6_65
*1352 FILLER_0_6_77
*1353 FILLER_0_6_83
*1354 FILLER_0_6_85
*1355 FILLER_0_6_97
*1356 FILLER_0_7_105
*1357 FILLER_0_7_111
*1358 FILLER_0_7_113
*1359 FILLER_0_7_125
*1360 FILLER_0_7_137
*1361 FILLER_0_7_149
*1362 FILLER_0_7_15
*1363 FILLER_0_7_161
*1364 FILLER_0_7_167
*1365 FILLER_0_7_169
*1366 FILLER_0_7_181
*1367 FILLER_0_7_193
*1368 FILLER_0_7_205
*1369 FILLER_0_7_217
*1370 FILLER_0_7_223
*1371 FILLER_0_7_225
*1372 FILLER_0_7_237
*1373 FILLER_0_7_249
*1374 FILLER_0_7_261
*1375 FILLER_0_7_27
*1376 FILLER_0_7_273
*1377 FILLER_0_7_279
*1378 FILLER_0_7_281
*1379 FILLER_0_7_293
*1380 FILLER_0_7_3
*1381 FILLER_0_7_305
*1382 FILLER_0_7_317
*1383 FILLER_0_7_329
*1384 FILLER_0_7_39
*1385 FILLER_0_7_51
*1386 FILLER_0_7_55
*1387 FILLER_0_7_57
*1388 FILLER_0_7_69
*1389 FILLER_0_7_81
*1390 FILLER_0_7_93
*1391 FILLER_0_8_109
*1392 FILLER_0_8_121
*1393 FILLER_0_8_133
*1394 FILLER_0_8_139
*1395 FILLER_0_8_141
*1396 FILLER_0_8_15
*1397 FILLER_0_8_153
*1398 FILLER_0_8_165
*1399 FILLER_0_8_177
*1400 FILLER_0_8_189
*1401 FILLER_0_8_195
*1402 FILLER_0_8_197
*1403 FILLER_0_8_209
*1404 FILLER_0_8_221
*1405 FILLER_0_8_233
*1406 FILLER_0_8_245
*1407 FILLER_0_8_251
*1408 FILLER_0_8_253
*1409 FILLER_0_8_265
*1410 FILLER_0_8_27
*1411 FILLER_0_8_277
*1412 FILLER_0_8_289
*1413 FILLER_0_8_29
*1414 FILLER_0_8_3
*1415 FILLER_0_8_301
*1416 FILLER_0_8_307
*1417 FILLER_0_8_309
*1418 FILLER_0_8_321
*1419 FILLER_0_8_333
*1420 FILLER_0_8_41
*1421 FILLER_0_8_53
*1422 FILLER_0_8_65
*1423 FILLER_0_8_77
*1424 FILLER_0_8_83
*1425 FILLER_0_8_85
*1426 FILLER_0_8_97
*1427 FILLER_0_9_105
*1428 FILLER_0_9_111
*1429 FILLER_0_9_113
*1430 FILLER_0_9_125
*1431 FILLER_0_9_137
*1432 FILLER_0_9_149
*1433 FILLER_0_9_15
*1434 FILLER_0_9_161
*1435 FILLER_0_9_167
*1436 FILLER_0_9_169
*1437 FILLER_0_9_181
*1438 FILLER_0_9_193
*1439 FILLER_0_9_205
*1440 FILLER_0_9_217
*1441 FILLER_0_9_223
*1442 FILLER_0_9_225
*1443 FILLER_0_9_237
*1444 FILLER_0_9_249
*1445 FILLER_0_9_261
*1446 FILLER_0_9_27
*1447 FILLER_0_9_273
*1448 FILLER_0_9_279
*1449 FILLER_0_9_281
*1450 FILLER_0_9_293
*1451 FILLER_0_9_3
*1452 FILLER_0_9_305
*1453 FILLER_0_9_317
*1454 FILLER_0_9_329
*1455 FILLER_0_9_39
*1456 FILLER_0_9_51