*SPEF "ieee 1481-1999"
*DESIGN "tt_um_moving_average_master"
*DATE "07:38:22 Wednesday April 10, 2024"
*VENDOR "The OpenROAD Project"
*PROGRAM "OpenROAD"
*VERSION "0889970d1790a2617e69f253221b8bd7626e51dc"
*DESIGN_FLOW "NAME_SCOPE LOCAL" "PIN_CAP NONE"
*DIVIDER /
*DELIMITER :
*BUS_DELIMITER []
*T_UNIT 1 NS
*C_UNIT 1 PF
*R_UNIT 1 OHM
*L_UNIT 1 HENRY

*NAME_MAP
*3 clk
*4 ena
*5 rst_n
*6 ui_in[0]
*7 ui_in[1]
*8 ui_in[2]
*9 ui_in[3]
*10 ui_in[4]
*11 ui_in[5]
*12 ui_in[6]
*13 ui_in[7]
*14 uio_in[0]
*15 uio_in[1]
*16 uio_in[2]
*17 uio_in[3]
*18 uio_in[4]
*19 uio_in[5]
*20 uio_in[6]
*21 uio_in[7]
*22 net49
*23 net59
*24 net50
*25 net51
*26 net60
*27 net61
*28 net52
*29 net53
*30 net54
*31 uio_out[1]
*32 net55
*33 net56
*34 uio_out[4]
*35 uio_out[5]
*36 net57
*37 net58
*38 uo_out[0]
*39 uo_out[1]
*40 uo_out[2]
*41 uo_out[3]
*42 uo_out[4]
*43 uo_out[5]
*44 uo_out[6]
*45 uo_out[7]
*46 _0000_
*47 _0001_
*48 _0002_
*49 _0003_
*50 _0004_
*51 _0005_
*52 _0006_
*53 _0007_
*54 _0008_
*55 _0009_
*56 _0010_
*57 _0011_
*58 _0012_
*59 _0013_
*60 _0014_
*61 _0015_
*62 _0016_
*63 _0017_
*64 _0018_
*65 _0019_
*66 _0020_
*67 _0021_
*68 _0022_
*69 _0023_
*70 _0024_
*71 _0025_
*72 _0026_
*73 _0027_
*74 _0028_
*75 _0029_
*76 _0030_
*77 _0031_
*78 _0032_
*79 _0033_
*80 _0034_
*81 _0035_
*82 _0036_
*83 _0037_
*84 _0038_
*85 _0039_
*86 _0040_
*87 _0041_
*88 _0042_
*89 _0043_
*90 _0044_
*91 _0045_
*92 _0046_
*93 _0047_
*94 _0048_
*95 _0049_
*96 _0050_
*97 _0051_
*98 _0052_
*99 _0053_
*100 _0054_
*101 _0055_
*102 _0056_
*103 _0057_
*104 _0058_
*105 _0059_
*106 _0060_
*107 _0061_
*108 _0062_
*109 _0063_
*110 _0064_
*111 _0065_
*112 _0066_
*113 _0067_
*114 _0068_
*115 _0069_
*116 _0070_
*117 _0071_
*118 _0072_
*119 _0073_
*120 _0074_
*121 _0075_
*122 _0076_
*123 _0077_
*124 _0078_
*125 _0079_
*126 _0080_
*127 _0081_
*128 _0082_
*129 _0083_
*130 _0084_
*131 _0085_
*132 _0086_
*133 _0087_
*134 _0088_
*135 _0089_
*136 _0090_
*137 _0091_
*138 _0092_
*139 _0093_
*140 _0094_
*141 _0095_
*142 _0096_
*143 _0097_
*144 _0098_
*145 _0099_
*146 _0100_
*147 _0101_
*148 _0102_
*149 _0103_
*150 _0104_
*151 _0105_
*152 _0106_
*153 _0107_
*154 _0108_
*155 _0109_
*156 _0110_
*157 _0111_
*158 _0112_
*159 _0113_
*160 _0114_
*161 _0115_
*162 _0116_
*163 _0117_
*164 _0118_
*165 _0119_
*166 _0120_
*167 _0121_
*168 _0122_
*169 _0123_
*170 _0124_
*171 _0125_
*172 _0126_
*173 _0127_
*174 _0128_
*175 _0129_
*176 _0130_
*177 _0131_
*178 _0132_
*179 _0133_
*180 _0134_
*181 _0135_
*182 _0136_
*183 _0137_
*184 _0138_
*185 _0139_
*186 _0140_
*187 _0141_
*188 _0142_
*189 _0143_
*190 _0144_
*191 _0145_
*192 _0146_
*193 _0147_
*194 _0148_
*195 _0149_
*196 _0150_
*197 _0151_
*198 _0152_
*199 _0153_
*200 _0154_
*201 _0155_
*202 _0156_
*203 _0157_
*204 _0158_
*205 _0159_
*206 _0160_
*207 _0161_
*208 _0162_
*209 _0163_
*210 _0164_
*211 _0165_
*212 _0166_
*213 _0167_
*214 _0168_
*215 _0169_
*216 _0170_
*217 _0171_
*218 _0172_
*219 _0173_
*220 _0174_
*221 _0175_
*222 _0176_
*223 _0177_
*224 _0178_
*225 _0179_
*226 _0180_
*227 _0181_
*228 _0182_
*229 _0183_
*230 _0184_
*231 _0185_
*232 _0186_
*233 _0187_
*234 _0188_
*235 _0189_
*236 _0190_
*237 _0191_
*238 _0192_
*239 _0193_
*240 _0194_
*241 _0195_
*242 _0196_
*243 _0197_
*244 _0198_
*245 _0199_
*246 _0200_
*247 _0201_
*248 _0202_
*249 _0203_
*250 _0204_
*251 _0205_
*252 _0206_
*253 _0207_
*254 _0208_
*255 _0209_
*256 _0210_
*257 _0211_
*258 _0212_
*259 _0213_
*260 _0214_
*261 _0215_
*262 _0216_
*263 _0217_
*264 _0218_
*265 _0219_
*266 _0220_
*267 _0221_
*268 _0222_
*269 _0223_
*270 _0224_
*271 _0225_
*272 _0226_
*273 _0227_
*274 _0228_
*275 _0229_
*276 _0230_
*277 _0231_
*278 _0232_
*279 _0233_
*280 _0234_
*281 _0235_
*282 _0236_
*283 _0237_
*284 _0238_
*285 _0239_
*286 _0240_
*287 _0241_
*288 _0242_
*289 _0243_
*290 _0244_
*291 _0245_
*292 _0246_
*293 _0247_
*294 _0248_
*295 _0249_
*296 _0250_
*297 _0251_
*298 _0252_
*299 _0253_
*300 _0254_
*301 _0255_
*302 _0256_
*303 _0257_
*304 _0258_
*305 _0259_
*306 _0260_
*307 _0261_
*308 _0262_
*309 _0263_
*310 _0264_
*311 _0265_
*312 _0266_
*313 _0267_
*314 _0268_
*315 _0269_
*316 _0270_
*317 _0271_
*318 _0272_
*319 _0273_
*320 _0274_
*321 _0275_
*322 _0276_
*323 _0277_
*324 _0278_
*325 _0279_
*326 _0280_
*327 _0281_
*328 _0282_
*329 _0283_
*330 _0284_
*331 _0285_
*332 _0286_
*333 _0287_
*334 _0288_
*335 _0289_
*336 _0290_
*337 _0291_
*338 _0292_
*339 _0293_
*340 _0294_
*341 _0295_
*342 _0296_
*343 _0297_
*344 _0298_
*345 _0299_
*346 _0300_
*347 _0301_
*348 _0302_
*349 _0303_
*350 _0304_
*351 _0305_
*352 _0306_
*353 _0307_
*354 _0308_
*355 _0309_
*356 _0310_
*357 _0311_
*358 _0312_
*359 _0313_
*360 _0314_
*361 _0315_
*362 _0316_
*363 _0317_
*364 _0318_
*365 _0319_
*366 _0320_
*367 _0321_
*368 _0322_
*369 _0323_
*370 _0324_
*371 _0325_
*372 _0326_
*373 _0327_
*374 _0328_
*375 _0329_
*376 _0330_
*377 _0331_
*378 _0332_
*379 _0333_
*380 _0334_
*381 _0335_
*382 _0336_
*383 _0337_
*384 _0338_
*385 _0339_
*386 _0340_
*387 _0341_
*388 _0342_
*389 _0343_
*390 _0344_
*391 _0345_
*392 _0346_
*393 _0347_
*394 _0348_
*395 _0349_
*396 _0350_
*397 _0351_
*398 _0352_
*399 _0353_
*400 _0354_
*401 _0355_
*402 _0356_
*403 _0357_
*404 _0358_
*405 _0359_
*406 _0360_
*407 _0361_
*408 _0362_
*409 _0363_
*410 _0364_
*411 _0365_
*412 _0366_
*413 _0367_
*414 _0368_
*415 _0369_
*416 _0370_
*417 _0371_
*418 _0372_
*419 _0373_
*420 _0374_
*421 _0375_
*422 _0376_
*423 _0377_
*424 _0378_
*425 _0379_
*426 _0380_
*427 _0381_
*428 _0382_
*429 _0383_
*430 _0384_
*431 _0385_
*432 _0386_
*433 _0387_
*434 _0388_
*435 _0389_
*436 _0390_
*437 _0391_
*438 _0392_
*439 _0393_
*440 _0394_
*441 _0395_
*442 _0396_
*443 _0397_
*444 _0398_
*445 _0399_
*446 _0400_
*447 _0401_
*448 _0402_
*449 _0403_
*450 _0404_
*451 _0405_
*452 _0406_
*453 _0407_
*454 _0408_
*455 _0409_
*456 _0410_
*457 _0411_
*458 _0412_
*459 _0413_
*460 _0414_
*461 _0415_
*462 _0416_
*463 _0417_
*464 _0418_
*465 _0419_
*466 _0420_
*467 _0421_
*468 _0422_
*469 _0423_
*470 _0424_
*471 _0425_
*472 _0426_
*473 _0427_
*474 _0428_
*475 _0429_
*476 _0430_
*477 _0431_
*478 _0432_
*479 _0433_
*480 _0434_
*481 _0435_
*482 _0436_
*483 _0437_
*484 _0438_
*485 _0439_
*486 _0440_
*487 _0441_
*488 _0442_
*489 _0443_
*490 _0444_
*491 _0445_
*492 _0446_
*493 _0447_
*494 _0448_
*495 _0449_
*496 _0450_
*497 _0451_
*498 _0452_
*499 _0453_
*500 _0454_
*501 _0455_
*502 _0456_
*503 _0457_
*504 _0458_
*505 _0459_
*506 _0460_
*507 _0461_
*508 _0462_
*509 _0463_
*510 _0464_
*511 _0465_
*512 _0466_
*513 _0467_
*514 _0468_
*515 _0469_
*516 _0470_
*517 _0471_
*518 _0472_
*519 _0473_
*520 _0474_
*521 _0475_
*522 _0476_
*523 _0477_
*524 _0478_
*525 _0479_
*526 _0480_
*527 _0481_
*528 _0482_
*529 _0483_
*530 _0484_
*531 _0485_
*532 _0486_
*533 _0487_
*534 _0488_
*535 _0489_
*536 _0490_
*537 _0491_
*538 _0492_
*539 _0493_
*540 _0494_
*541 _0495_
*542 _0496_
*543 _0497_
*544 _0498_
*545 _0499_
*546 _0500_
*547 _0501_
*548 _0502_
*549 _0503_
*550 _0504_
*551 _0505_
*552 _0506_
*553 _0507_
*554 _0508_
*555 _0509_
*556 _0510_
*557 _0511_
*558 _0512_
*559 _0513_
*560 _0514_
*561 _0515_
*562 _0516_
*563 _0517_
*564 _0518_
*565 _0519_
*566 _0520_
*567 _0521_
*568 _0522_
*569 _0523_
*570 _0524_
*571 _0525_
*572 _0526_
*573 _0527_
*574 _0528_
*575 _0529_
*576 _0530_
*577 _0531_
*578 _0532_
*579 _0533_
*580 _0534_
*581 _0535_
*582 _0536_
*583 _0537_
*584 _0538_
*585 _0539_
*586 _0540_
*587 _0541_
*588 _0542_
*589 _0543_
*590 _0544_
*591 _0545_
*592 _0546_
*593 _0547_
*594 _0548_
*595 _0549_
*596 _0550_
*597 _0551_
*598 _0552_
*599 _0553_
*600 _0554_
*601 _0555_
*602 _0556_
*603 _0557_
*604 _0558_
*605 _0559_
*606 _0560_
*607 _0561_
*608 _0562_
*609 _0563_
*610 _0564_
*611 _0565_
*612 _0566_
*613 _0567_
*614 _0568_
*615 _0569_
*616 _0570_
*617 _0571_
*618 _0572_
*619 _0573_
*620 _0574_
*621 _0575_
*622 _0576_
*623 _0577_
*624 _0578_
*625 _0579_
*626 _0580_
*627 _0581_
*628 _0582_
*629 _0583_
*630 _0584_
*631 _0585_
*632 _0586_
*633 _0587_
*634 _0588_
*635 _0589_
*636 _0590_
*637 _0591_
*638 _0592_
*639 _0593_
*640 _0594_
*641 _0595_
*642 _0596_
*643 _0597_
*644 _0598_
*645 _0599_
*646 _0600_
*647 _0601_
*648 _0602_
*649 _0603_
*650 _0604_
*651 _0605_
*652 _0606_
*653 _0607_
*654 _0608_
*655 _0609_
*656 _0610_
*657 _0611_
*658 _0612_
*659 _0613_
*660 _0614_
*661 _0615_
*662 _0616_
*663 _0617_
*664 _0618_
*665 _0619_
*666 _0620_
*667 _0621_
*668 _0622_
*669 _0623_
*670 _0624_
*671 _0625_
*672 _0626_
*673 _0627_
*674 _0628_
*675 _0629_
*676 _0630_
*677 _0631_
*678 _0632_
*679 _0633_
*680 _0634_
*681 _0635_
*682 _0636_
*683 _0637_
*684 _0638_
*685 _0639_
*686 _0640_
*687 _0641_
*688 _0642_
*689 _0643_
*690 _0644_
*691 _0645_
*692 _0646_
*693 _0647_
*694 _0648_
*695 _0649_
*696 _0650_
*697 _0651_
*698 _0652_
*699 _0653_
*700 _0654_
*701 _0655_
*702 _0656_
*703 _0657_
*704 _0658_
*705 _0659_
*706 _0660_
*707 _0661_
*708 _0662_
*709 _0663_
*710 _0664_
*711 _0665_
*712 _0666_
*713 _0667_
*714 _0668_
*715 _0669_
*716 _0670_
*717 _0671_
*718 _0672_
*719 _0673_
*720 _0674_
*721 _0675_
*722 _0676_
*723 _0677_
*724 _0678_
*725 _0679_
*726 _0680_
*727 _0681_
*728 _0682_
*729 _0683_
*730 _0684_
*731 _0685_
*732 _0686_
*733 _0687_
*734 _0688_
*735 _0689_
*736 _0690_
*737 _0691_
*738 _0692_
*739 _0693_
*740 _0694_
*741 _0695_
*742 _0696_
*743 _0697_
*744 _0698_
*745 _0699_
*746 _0700_
*747 _0701_
*748 _0702_
*749 _0703_
*750 _0704_
*751 _0705_
*752 _0706_
*753 _0707_
*754 _0708_
*755 _0709_
*756 _0710_
*757 _0711_
*758 _0712_
*759 _0713_
*760 _0714_
*761 _0715_
*762 _0716_
*763 _0717_
*764 _0718_
*765 _0719_
*766 _0720_
*767 _0721_
*768 _0722_
*769 _0723_
*770 _0724_
*771 _0725_
*772 _0726_
*773 _0727_
*774 _0728_
*775 _0729_
*776 _0730_
*777 _0731_
*778 _0732_
*779 _0733_
*780 _0734_
*781 _0735_
*782 _0736_
*783 _0737_
*784 _0738_
*785 _0739_
*786 _0740_
*787 _0741_
*788 _0742_
*789 _0743_
*790 _0744_
*791 _0745_
*792 _0746_
*793 _0747_
*794 _0748_
*795 _0749_
*796 _0750_
*797 _0751_
*798 _0752_
*799 _0753_
*800 _0754_
*801 _0755_
*802 _0756_
*803 _0757_
*804 _0758_
*805 _0759_
*806 _0760_
*807 _0761_
*808 _0762_
*809 _0763_
*810 _0764_
*811 _0765_
*812 _0766_
*813 _0767_
*814 _0768_
*815 _0769_
*816 _0770_
*817 _0771_
*818 _0772_
*819 _0773_
*820 _0774_
*821 _0775_
*822 _0776_
*823 _0777_
*824 _0778_
*825 _0779_
*826 _0780_
*827 _0781_
*828 _0782_
*829 _0783_
*830 _0784_
*831 _0785_
*832 _0786_
*833 _0787_
*834 _0788_
*835 _0789_
*836 _0790_
*837 _0791_
*838 _0792_
*839 _0793_
*840 _0794_
*841 _0795_
*842 _0796_
*843 _0797_
*844 _0798_
*845 _0799_
*846 _0800_
*847 _0801_
*848 _0802_
*849 _0803_
*850 _0804_
*851 _0805_
*852 _0806_
*853 _0807_
*854 _0808_
*855 _0809_
*856 _0810_
*857 _0811_
*858 _0812_
*859 _0813_
*860 _0814_
*861 _0815_
*862 _0816_
*863 _0817_
*864 _0818_
*865 _0819_
*866 _0820_
*867 _0821_
*868 _0822_
*869 _0823_
*870 _0824_
*871 _0825_
*872 _0826_
*873 _0827_
*874 _0828_
*875 _0829_
*876 _0830_
*877 _0831_
*878 _0832_
*879 _0833_
*880 _0834_
*881 _0835_
*882 _0836_
*883 _0837_
*884 _0838_
*885 _0839_
*886 _0840_
*887 _0841_
*888 _0842_
*889 _0843_
*890 _0844_
*891 _0845_
*892 _0846_
*893 _0847_
*894 _0848_
*895 _0849_
*896 _0850_
*897 _0851_
*898 _0852_
*899 _0853_
*900 _0854_
*901 _0855_
*902 _0856_
*903 _0857_
*904 _0858_
*905 _0859_
*906 _0860_
*907 _0861_
*908 _0862_
*909 _0863_
*910 _0864_
*911 _0865_
*912 _0866_
*913 _0867_
*914 _0868_
*915 _0869_
*916 _0870_
*917 _0871_
*918 _0872_
*919 _0873_
*920 _0874_
*921 _0875_
*922 _0876_
*923 _0877_
*924 _0878_
*925 _0879_
*926 _0880_
*927 _0881_
*928 clknet_0_clk
*929 clknet_1_0__leaf_clk
*930 clknet_1_1__leaf_clk
*931 clknet_leaf_0_clk
*932 clknet_leaf_10_clk
*933 clknet_leaf_11_clk
*934 clknet_leaf_12_clk
*935 clknet_leaf_13_clk
*936 clknet_leaf_1_clk
*937 clknet_leaf_2_clk
*938 clknet_leaf_3_clk
*939 clknet_leaf_4_clk
*940 clknet_leaf_5_clk
*941 clknet_leaf_6_clk
*942 clknet_leaf_7_clk
*943 clknet_leaf_8_clk
*944 clknet_leaf_9_clk
*945 filter_2\.avg_sum\[0\]
*946 filter_2\.avg_sum\[1\]
*947 filter_2\.avg_sum\[2\]
*948 filter_2\.avg_sum\[3\]
*949 filter_2\.avg_sum\[4\]
*950 filter_2\.avg_sum\[5\]
*951 filter_2\.avg_sum\[6\]
*952 filter_2\.avg_sum\[7\]
*953 filter_2\.avg_sum\[8\]
*954 filter_2\.avg_sum\[9\]
*955 filter_2\.counter_value
*956 filter_2\.shift_reg\[0\]\[0\]
*957 filter_2\.shift_reg\[0\]\[1\]
*958 filter_2\.shift_reg\[0\]\[2\]
*959 filter_2\.shift_reg\[0\]\[3\]
*960 filter_2\.shift_reg\[0\]\[4\]
*961 filter_2\.shift_reg\[0\]\[5\]
*962 filter_2\.shift_reg\[0\]\[6\]
*963 filter_2\.shift_reg\[0\]\[7\]
*964 filter_2\.shift_reg\[0\]\[8\]
*965 filter_2\.shift_reg\[0\]\[9\]
*966 filter_2\.state\[0\]
*967 filter_2\.state\[1\]
*968 filter_2\.sum\[0\]
*969 filter_2\.sum\[10\]
*970 filter_2\.sum\[1\]
*971 filter_2\.sum\[2\]
*972 filter_2\.sum\[3\]
*973 filter_2\.sum\[4\]
*974 filter_2\.sum\[5\]
*975 filter_2\.sum\[6\]
*976 filter_2\.sum\[7\]
*977 filter_2\.sum\[8\]
*978 filter_2\.sum\[9\]
*979 filter_4\.avg_sum\[0\]
*980 filter_4\.avg_sum\[1\]
*981 filter_4\.avg_sum\[2\]
*982 filter_4\.avg_sum\[3\]
*983 filter_4\.avg_sum\[4\]
*984 filter_4\.avg_sum\[5\]
*985 filter_4\.avg_sum\[6\]
*986 filter_4\.avg_sum\[7\]
*987 filter_4\.avg_sum\[8\]
*988 filter_4\.avg_sum\[9\]
*989 filter_4\.counter_value\[0\]
*990 filter_4\.counter_value\[1\]
*991 filter_4\.shift_reg\[0\]\[0\]
*992 filter_4\.shift_reg\[0\]\[1\]
*993 filter_4\.shift_reg\[0\]\[2\]
*994 filter_4\.shift_reg\[0\]\[3\]
*995 filter_4\.shift_reg\[0\]\[4\]
*996 filter_4\.shift_reg\[0\]\[5\]
*997 filter_4\.shift_reg\[0\]\[6\]
*998 filter_4\.shift_reg\[0\]\[7\]
*999 filter_4\.shift_reg\[0\]\[8\]
*1000 filter_4\.shift_reg\[0\]\[9\]
*1001 filter_4\.shift_reg\[1\]\[0\]
*1002 filter_4\.shift_reg\[1\]\[1\]
*1003 filter_4\.shift_reg\[1\]\[2\]
*1004 filter_4\.shift_reg\[1\]\[3\]
*1005 filter_4\.shift_reg\[1\]\[4\]
*1006 filter_4\.shift_reg\[1\]\[5\]
*1007 filter_4\.shift_reg\[1\]\[6\]
*1008 filter_4\.shift_reg\[1\]\[7\]
*1009 filter_4\.shift_reg\[1\]\[8\]
*1010 filter_4\.shift_reg\[1\]\[9\]
*1011 filter_4\.shift_reg\[2\]\[0\]
*1012 filter_4\.shift_reg\[2\]\[1\]
*1013 filter_4\.shift_reg\[2\]\[2\]
*1014 filter_4\.shift_reg\[2\]\[3\]
*1015 filter_4\.shift_reg\[2\]\[4\]
*1016 filter_4\.shift_reg\[2\]\[5\]
*1017 filter_4\.shift_reg\[2\]\[6\]
*1018 filter_4\.shift_reg\[2\]\[7\]
*1019 filter_4\.shift_reg\[2\]\[8\]
*1020 filter_4\.shift_reg\[2\]\[9\]
*1021 filter_4\.state\[0\]
*1022 filter_4\.state\[1\]
*1023 filter_4\.sum\[0\]
*1024 filter_4\.sum\[10\]
*1025 filter_4\.sum\[11\]
*1026 filter_4\.sum\[1\]
*1027 filter_4\.sum\[2\]
*1028 filter_4\.sum\[3\]
*1029 filter_4\.sum\[4\]
*1030 filter_4\.sum\[5\]
*1031 filter_4\.sum\[6\]
*1032 filter_4\.sum\[7\]
*1033 filter_4\.sum\[8\]
*1034 filter_4\.sum\[9\]
*1035 filter_8\.avg_sum\[0\]
*1036 filter_8\.avg_sum\[1\]
*1037 filter_8\.avg_sum\[2\]
*1038 filter_8\.avg_sum\[3\]
*1039 filter_8\.avg_sum\[4\]
*1040 filter_8\.avg_sum\[5\]
*1041 filter_8\.avg_sum\[6\]
*1042 filter_8\.avg_sum\[7\]
*1043 filter_8\.avg_sum\[8\]
*1044 filter_8\.avg_sum\[9\]
*1045 filter_8\.counter_value\[0\]
*1046 filter_8\.counter_value\[1\]
*1047 filter_8\.counter_value\[2\]
*1048 filter_8\.shift_reg\[0\]\[0\]
*1049 filter_8\.shift_reg\[0\]\[1\]
*1050 filter_8\.shift_reg\[0\]\[2\]
*1051 filter_8\.shift_reg\[0\]\[3\]
*1052 filter_8\.shift_reg\[0\]\[4\]
*1053 filter_8\.shift_reg\[0\]\[5\]
*1054 filter_8\.shift_reg\[0\]\[6\]
*1055 filter_8\.shift_reg\[0\]\[7\]
*1056 filter_8\.shift_reg\[0\]\[8\]
*1057 filter_8\.shift_reg\[0\]\[9\]
*1058 filter_8\.shift_reg\[1\]\[0\]
*1059 filter_8\.shift_reg\[1\]\[1\]
*1060 filter_8\.shift_reg\[1\]\[2\]
*1061 filter_8\.shift_reg\[1\]\[3\]
*1062 filter_8\.shift_reg\[1\]\[4\]
*1063 filter_8\.shift_reg\[1\]\[5\]
*1064 filter_8\.shift_reg\[1\]\[6\]
*1065 filter_8\.shift_reg\[1\]\[7\]
*1066 filter_8\.shift_reg\[1\]\[8\]
*1067 filter_8\.shift_reg\[1\]\[9\]
*1068 filter_8\.shift_reg\[2\]\[0\]
*1069 filter_8\.shift_reg\[2\]\[1\]
*1070 filter_8\.shift_reg\[2\]\[2\]
*1071 filter_8\.shift_reg\[2\]\[3\]
*1072 filter_8\.shift_reg\[2\]\[4\]
*1073 filter_8\.shift_reg\[2\]\[5\]
*1074 filter_8\.shift_reg\[2\]\[6\]
*1075 filter_8\.shift_reg\[2\]\[7\]
*1076 filter_8\.shift_reg\[2\]\[8\]
*1077 filter_8\.shift_reg\[2\]\[9\]
*1078 filter_8\.shift_reg\[3\]\[0\]
*1079 filter_8\.shift_reg\[3\]\[1\]
*1080 filter_8\.shift_reg\[3\]\[2\]
*1081 filter_8\.shift_reg\[3\]\[3\]
*1082 filter_8\.shift_reg\[3\]\[4\]
*1083 filter_8\.shift_reg\[3\]\[5\]
*1084 filter_8\.shift_reg\[3\]\[6\]
*1085 filter_8\.shift_reg\[3\]\[7\]
*1086 filter_8\.shift_reg\[3\]\[8\]
*1087 filter_8\.shift_reg\[3\]\[9\]
*1088 filter_8\.shift_reg\[4\]\[0\]
*1089 filter_8\.shift_reg\[4\]\[1\]
*1090 filter_8\.shift_reg\[4\]\[2\]
*1091 filter_8\.shift_reg\[4\]\[3\]
*1092 filter_8\.shift_reg\[4\]\[4\]
*1093 filter_8\.shift_reg\[4\]\[5\]
*1094 filter_8\.shift_reg\[4\]\[6\]
*1095 filter_8\.shift_reg\[4\]\[7\]
*1096 filter_8\.shift_reg\[4\]\[8\]
*1097 filter_8\.shift_reg\[4\]\[9\]
*1098 filter_8\.shift_reg\[5\]\[0\]
*1099 filter_8\.shift_reg\[5\]\[1\]
*1100 filter_8\.shift_reg\[5\]\[2\]
*1101 filter_8\.shift_reg\[5\]\[3\]
*1102 filter_8\.shift_reg\[5\]\[4\]
*1103 filter_8\.shift_reg\[5\]\[5\]
*1104 filter_8\.shift_reg\[5\]\[6\]
*1105 filter_8\.shift_reg\[5\]\[7\]
*1106 filter_8\.shift_reg\[5\]\[8\]
*1107 filter_8\.shift_reg\[5\]\[9\]
*1108 filter_8\.shift_reg\[6\]\[0\]
*1109 filter_8\.shift_reg\[6\]\[1\]
*1110 filter_8\.shift_reg\[6\]\[2\]
*1111 filter_8\.shift_reg\[6\]\[3\]
*1112 filter_8\.shift_reg\[6\]\[4\]
*1113 filter_8\.shift_reg\[6\]\[5\]
*1114 filter_8\.shift_reg\[6\]\[6\]
*1115 filter_8\.shift_reg\[6\]\[7\]
*1116 filter_8\.shift_reg\[6\]\[8\]
*1117 filter_8\.shift_reg\[6\]\[9\]
*1118 filter_8\.state\[0\]
*1119 filter_8\.state\[1\]
*1120 filter_8\.sum\[0\]
*1121 filter_8\.sum\[10\]
*1122 filter_8\.sum\[11\]
*1123 filter_8\.sum\[12\]
*1124 filter_8\.sum\[1\]
*1125 filter_8\.sum\[2\]
*1126 filter_8\.sum\[3\]
*1127 filter_8\.sum\[4\]
*1128 filter_8\.sum\[5\]
*1129 filter_8\.sum\[6\]
*1130 filter_8\.sum\[7\]
*1131 filter_8\.sum\[8\]
*1132 filter_8\.sum\[9\]
*1133 filter_8_extra\.avg_sum\[0\]
*1134 filter_8_extra\.avg_sum\[1\]
*1135 filter_8_extra\.avg_sum\[2\]
*1136 filter_8_extra\.avg_sum\[3\]
*1137 filter_8_extra\.avg_sum\[4\]
*1138 filter_8_extra\.avg_sum\[5\]
*1139 filter_8_extra\.avg_sum\[6\]
*1140 filter_8_extra\.avg_sum\[7\]
*1141 filter_8_extra\.avg_sum\[8\]
*1142 filter_8_extra\.avg_sum\[9\]
*1143 filter_8_extra\.counter_value
*1144 filter_8_extra\.shift_reg\[0\]\[0\]
*1145 filter_8_extra\.shift_reg\[0\]\[1\]
*1146 filter_8_extra\.shift_reg\[0\]\[2\]
*1147 filter_8_extra\.shift_reg\[0\]\[3\]
*1148 filter_8_extra\.shift_reg\[0\]\[4\]
*1149 filter_8_extra\.shift_reg\[0\]\[5\]
*1150 filter_8_extra\.shift_reg\[0\]\[6\]
*1151 filter_8_extra\.shift_reg\[0\]\[7\]
*1152 filter_8_extra\.shift_reg\[0\]\[8\]
*1153 filter_8_extra\.shift_reg\[0\]\[9\]
*1154 filter_8_extra\.state\[0\]
*1155 filter_8_extra\.state\[1\]
*1156 filter_8_extra\.sum\[0\]
*1157 filter_8_extra\.sum\[10\]
*1158 filter_8_extra\.sum\[1\]
*1159 filter_8_extra\.sum\[2\]
*1160 filter_8_extra\.sum\[3\]
*1161 filter_8_extra\.sum\[4\]
*1162 filter_8_extra\.sum\[5\]
*1163 filter_8_extra\.sum\[6\]
*1164 filter_8_extra\.sum\[7\]
*1165 filter_8_extra\.sum\[8\]
*1166 filter_8_extra\.sum\[9\]
*1167 net1
*1168 net10
*1169 net100
*1170 net101
*1171 net102
*1172 net103
*1173 net104
*1174 net105
*1175 net106
*1176 net107
*1177 net108
*1178 net109
*1179 net11
*1180 net110
*1181 net111
*1182 net112
*1183 net113
*1184 net114
*1185 net115
*1186 net116
*1187 net117
*1188 net118
*1189 net119
*1190 net12
*1191 net120
*1192 net121
*1193 net122
*1194 net123
*1195 net124
*1196 net125
*1197 net126
*1198 net127
*1199 net128
*1200 net129
*1201 net13
*1202 net130
*1203 net131
*1204 net132
*1205 net133
*1206 net134
*1207 net135
*1208 net136
*1209 net137
*1210 net138
*1211 net139
*1212 net14
*1213 net140
*1214 net141
*1215 net142
*1216 net143
*1217 net144
*1218 net15
*1219 net16
*1220 net17
*1221 net18
*1222 net19
*1223 net2
*1224 net20
*1225 net21
*1226 net22
*1227 net23
*1228 net24
*1229 net25
*1230 net26
*1231 net27
*1232 net28
*1233 net29
*1234 net3
*1235 net30
*1236 net31
*1237 net32
*1238 net33
*1239 net34
*1240 net35
*1241 net36
*1242 net37
*1243 net38
*1244 net39
*1245 net4
*1246 net40
*1247 net41
*1248 net42
*1249 net43
*1250 net44
*1251 net45
*1252 net46
*1253 net47
*1254 net48
*1255 net5
*1256 net6
*1257 net62
*1258 net63
*1259 net64
*1260 net65
*1261 net66
*1262 net67
*1263 net68
*1264 net69
*1265 net7
*1266 net70
*1267 net71
*1268 net72
*1269 net73
*1270 net74
*1271 net75
*1272 net76
*1273 net77
*1274 net78
*1275 net79
*1276 net8
*1277 net80
*1278 net81
*1279 net82
*1280 net83
*1281 net84
*1282 net85
*1283 net86
*1284 net87
*1285 net88
*1286 net89
*1287 net9
*1288 net90
*1289 net91
*1290 net92
*1291 net93
*1292 net94
*1293 net95
*1294 net96
*1295 net97
*1296 net98
*1297 net99
*1298 selected_strobe_out
*1299 ANTENNA_1
*1300 ANTENNA_2
*1301 ANTENNA_3
*1302 FILLER_0_0_104
*1303 FILLER_0_0_108
*1304 FILLER_0_0_133
*1305 FILLER_0_0_141
*1306 FILLER_0_0_147
*1307 FILLER_0_0_15
*1308 FILLER_0_0_169
*1309 FILLER_0_0_191
*1310 FILLER_0_0_217
*1311 FILLER_0_0_223
*1312 FILLER_0_0_27
*1313 FILLER_0_0_279
*1314 FILLER_0_0_29
*1315 FILLER_0_0_3
*1316 FILLER_0_0_301
*1317 FILLER_0_0_307
*1318 FILLER_0_0_318
*1319 FILLER_0_0_330
*1320 FILLER_0_0_334
*1321 FILLER_0_0_88
*1322 FILLER_0_10_106
*1323 FILLER_0_10_11
*1324 FILLER_0_10_138
*1325 FILLER_0_10_141
*1326 FILLER_0_10_161
*1327 FILLER_0_10_181
*1328 FILLER_0_10_185
*1329 FILLER_0_10_189
*1330 FILLER_0_10_217
*1331 FILLER_0_10_225
*1332 FILLER_0_10_23
*1333 FILLER_0_10_253
*1334 FILLER_0_10_27
*1335 FILLER_0_10_286
*1336 FILLER_0_10_29
*1337 FILLER_0_10_3
*1338 FILLER_0_10_301
*1339 FILLER_0_10_307
*1340 FILLER_0_10_309
*1341 FILLER_0_10_332
*1342 FILLER_0_10_40
*1343 FILLER_0_10_50
*1344 FILLER_0_10_56
*1345 FILLER_0_10_67
*1346 FILLER_0_10_7
*1347 FILLER_0_10_81
*1348 FILLER_0_10_85
*1349 FILLER_0_11_109
*1350 FILLER_0_11_119
*1351 FILLER_0_11_132
*1352 FILLER_0_11_142
*1353 FILLER_0_11_157
*1354 FILLER_0_11_179
*1355 FILLER_0_11_184
*1356 FILLER_0_11_199
*1357 FILLER_0_11_203
*1358 FILLER_0_11_220
*1359 FILLER_0_11_225
*1360 FILLER_0_11_238
*1361 FILLER_0_11_24
*1362 FILLER_0_11_253
*1363 FILLER_0_11_310
*1364 FILLER_0_11_34
*1365 FILLER_0_11_70
*1366 FILLER_0_11_81
*1367 FILLER_0_11_90
*1368 FILLER_0_12_100
*1369 FILLER_0_12_138
*1370 FILLER_0_12_141
*1371 FILLER_0_12_163
*1372 FILLER_0_12_168
*1373 FILLER_0_12_186
*1374 FILLER_0_12_197
*1375 FILLER_0_12_210
*1376 FILLER_0_12_233
*1377 FILLER_0_12_27
*1378 FILLER_0_12_3
*1379 FILLER_0_12_302
*1380 FILLER_0_12_56
*1381 FILLER_0_12_73
*1382 FILLER_0_12_93
*1383 FILLER_0_13_111
*1384 FILLER_0_13_113
*1385 FILLER_0_13_143
*1386 FILLER_0_13_147
*1387 FILLER_0_13_15
*1388 FILLER_0_13_166
*1389 FILLER_0_13_219
*1390 FILLER_0_13_223
*1391 FILLER_0_13_231
*1392 FILLER_0_13_235
*1393 FILLER_0_13_261
*1394 FILLER_0_13_275
*1395 FILLER_0_13_3
*1396 FILLER_0_13_301
*1397 FILLER_0_13_334
*1398 FILLER_0_13_72
*1399 FILLER_0_13_83
*1400 FILLER_0_14_110
*1401 FILLER_0_14_134
*1402 FILLER_0_14_144
*1403 FILLER_0_14_197
*1404 FILLER_0_14_240
*1405 FILLER_0_14_251
*1406 FILLER_0_14_253
*1407 FILLER_0_14_276
*1408 FILLER_0_14_280
*1409 FILLER_0_14_293
*1410 FILLER_0_14_297
*1411 FILLER_0_14_3
*1412 FILLER_0_14_312
*1413 FILLER_0_14_7
*1414 FILLER_0_14_94
*1415 FILLER_0_15_110
*1416 FILLER_0_15_113
*1417 FILLER_0_15_133
*1418 FILLER_0_15_180
*1419 FILLER_0_15_193
*1420 FILLER_0_15_215
*1421 FILLER_0_15_223
*1422 FILLER_0_15_228
*1423 FILLER_0_15_232
*1424 FILLER_0_15_256
*1425 FILLER_0_15_260
*1426 FILLER_0_15_275
*1427 FILLER_0_15_279
*1428 FILLER_0_15_299
*1429 FILLER_0_15_3
*1430 FILLER_0_15_303
*1431 FILLER_0_15_312
*1432 FILLER_0_15_333
*1433 FILLER_0_15_47
*1434 FILLER_0_15_52
*1435 FILLER_0_15_75
*1436 FILLER_0_15_9
*1437 FILLER_0_16_110
*1438 FILLER_0_16_137
*1439 FILLER_0_16_217
*1440 FILLER_0_16_241
*1441 FILLER_0_16_251
*1442 FILLER_0_16_258
*1443 FILLER_0_16_27
*1444 FILLER_0_16_279
*1445 FILLER_0_16_327
*1446 FILLER_0_16_333
*1447 FILLER_0_16_38
*1448 FILLER_0_16_46
*1449 FILLER_0_16_76
*1450 FILLER_0_16_85
*1451 FILLER_0_17_107
*1452 FILLER_0_17_111
*1453 FILLER_0_17_122
*1454 FILLER_0_17_169
*1455 FILLER_0_17_180
*1456 FILLER_0_17_203
*1457 FILLER_0_17_225
*1458 FILLER_0_17_24
*1459 FILLER_0_17_278
*1460 FILLER_0_17_29
*1461 FILLER_0_17_293
*1462 FILLER_0_17_3
*1463 FILLER_0_17_57
*1464 FILLER_0_18_12
*1465 FILLER_0_18_162
*1466 FILLER_0_18_197
*1467 FILLER_0_18_22
*1468 FILLER_0_18_227
*1469 FILLER_0_18_231
*1470 FILLER_0_18_235
*1471 FILLER_0_18_248
*1472 FILLER_0_18_261
*1473 FILLER_0_18_29
*1474 FILLER_0_18_3
*1475 FILLER_0_18_41
*1476 FILLER_0_18_58
*1477 FILLER_0_18_75
*1478 FILLER_0_18_85
*1479 FILLER_0_18_96
*1480 FILLER_0_19_105
*1481 FILLER_0_19_153
*1482 FILLER_0_19_178
*1483 FILLER_0_19_198
*1484 FILLER_0_19_219
*1485 FILLER_0_19_225
*1486 FILLER_0_19_279
*1487 FILLER_0_19_281
*1488 FILLER_0_19_292
*1489 FILLER_0_19_313
*1490 FILLER_0_19_32
*1491 FILLER_0_19_334
*1492 FILLER_0_1_110
*1493 FILLER_0_1_122
*1494 FILLER_0_1_128
*1495 FILLER_0_1_15
*1496 FILLER_0_1_152
*1497 FILLER_0_1_176
*1498 FILLER_0_1_186
*1499 FILLER_0_1_206
*1500 FILLER_0_1_220
*1501 FILLER_0_1_225
*1502 FILLER_0_1_229
*1503 FILLER_0_1_279
*1504 FILLER_0_1_3
*1505 FILLER_0_1_333
*1506 FILLER_0_1_55
*1507 FILLER_0_1_57
*1508 FILLER_0_1_68
*1509 FILLER_0_20_11
*1510 FILLER_0_20_134
*1511 FILLER_0_20_144
*1512 FILLER_0_20_187
*1513 FILLER_0_20_214
*1514 FILLER_0_20_253
*1515 FILLER_0_20_270
*1516 FILLER_0_20_298
*1517 FILLER_0_20_3
*1518 FILLER_0_20_306
*1519 FILLER_0_20_316
*1520 FILLER_0_20_49
*1521 FILLER_0_20_59
*1522 FILLER_0_20_63
*1523 FILLER_0_20_7
*1524 FILLER_0_20_76
*1525 FILLER_0_20_80
*1526 FILLER_0_21_133
*1527 FILLER_0_21_164
*1528 FILLER_0_21_169
*1529 FILLER_0_21_190
*1530 FILLER_0_21_204
*1531 FILLER_0_21_222
*1532 FILLER_0_21_225
*1533 FILLER_0_21_26
*1534 FILLER_0_21_284
*1535 FILLER_0_21_32
*1536 FILLER_0_21_42
*1537 FILLER_0_21_77
*1538 FILLER_0_21_91
*1539 FILLER_0_22_105
*1540 FILLER_0_22_11
*1541 FILLER_0_22_110
*1542 FILLER_0_22_131
*1543 FILLER_0_22_137
*1544 FILLER_0_22_150
*1545 FILLER_0_22_19
*1546 FILLER_0_22_205
*1547 FILLER_0_22_227
*1548 FILLER_0_22_231
*1549 FILLER_0_22_235
*1550 FILLER_0_22_242
*1551 FILLER_0_22_267
*1552 FILLER_0_22_29
*1553 FILLER_0_22_291
*1554 FILLER_0_22_3
*1555 FILLER_0_22_307
*1556 FILLER_0_22_42
*1557 FILLER_0_22_46
*1558 FILLER_0_22_54
*1559 FILLER_0_22_7
*1560 FILLER_0_22_81
*1561 FILLER_0_23_183
*1562 FILLER_0_23_212
*1563 FILLER_0_23_223
*1564 FILLER_0_23_269
*1565 FILLER_0_23_278
*1566 FILLER_0_23_312
*1567 FILLER_0_23_33
*1568 FILLER_0_23_334
*1569 FILLER_0_23_80
*1570 FILLER_0_24_10
*1571 FILLER_0_24_136
*1572 FILLER_0_24_18
*1573 FILLER_0_24_189
*1574 FILLER_0_24_229
*1575 FILLER_0_24_250
*1576 FILLER_0_24_3
*1577 FILLER_0_24_306
*1578 FILLER_0_24_332
*1579 FILLER_0_24_61
*1580 FILLER_0_24_97
*1581 FILLER_0_25_108
*1582 FILLER_0_25_113
*1583 FILLER_0_25_139
*1584 FILLER_0_25_169
*1585 FILLER_0_25_212
*1586 FILLER_0_25_221
*1587 FILLER_0_25_23
*1588 FILLER_0_25_236
*1589 FILLER_0_25_57
*1590 FILLER_0_25_63
*1591 FILLER_0_25_81
*1592 FILLER_0_26_119
*1593 FILLER_0_26_123
*1594 FILLER_0_26_127
*1595 FILLER_0_26_131
*1596 FILLER_0_26_138
*1597 FILLER_0_26_150
*1598 FILLER_0_26_187
*1599 FILLER_0_26_205
*1600 FILLER_0_26_21
*1601 FILLER_0_26_268
*1602 FILLER_0_26_284
*1603 FILLER_0_26_3
*1604 FILLER_0_26_303
*1605 FILLER_0_26_307
*1606 FILLER_0_26_309
*1607 FILLER_0_26_34
*1608 FILLER_0_26_44
*1609 FILLER_0_26_52
*1610 FILLER_0_26_9
*1611 FILLER_0_27_104
*1612 FILLER_0_27_110
*1613 FILLER_0_27_118
*1614 FILLER_0_27_169
*1615 FILLER_0_27_202
*1616 FILLER_0_27_225
*1617 FILLER_0_27_253
*1618 FILLER_0_27_304
*1619 FILLER_0_27_314
*1620 FILLER_0_27_57
*1621 FILLER_0_27_68
*1622 FILLER_0_27_86
*1623 FILLER_0_28_154
*1624 FILLER_0_28_208
*1625 FILLER_0_28_247
*1626 FILLER_0_28_251
*1627 FILLER_0_28_290
*1628 FILLER_0_28_3
*1629 FILLER_0_28_39
*1630 FILLER_0_28_47
*1631 FILLER_0_28_9
*1632 FILLER_0_29_163
*1633 FILLER_0_29_181
*1634 FILLER_0_29_196
*1635 FILLER_0_29_218
*1636 FILLER_0_29_225
*1637 FILLER_0_29_272
*1638 FILLER_0_29_276
*1639 FILLER_0_29_301
*1640 FILLER_0_29_41
*1641 FILLER_0_29_77
*1642 FILLER_0_2_15
*1643 FILLER_0_2_158
*1644 FILLER_0_2_191
*1645 FILLER_0_2_246
*1646 FILLER_0_2_262
*1647 FILLER_0_2_287
*1648 FILLER_0_2_29
*1649 FILLER_0_2_293
*1650 FILLER_0_2_3
*1651 FILLER_0_2_303
*1652 FILLER_0_2_307
*1653 FILLER_0_2_312
*1654 FILLER_0_2_325
*1655 FILLER_0_2_333
*1656 FILLER_0_30_102
*1657 FILLER_0_30_106
*1658 FILLER_0_30_14
*1659 FILLER_0_30_172
*1660 FILLER_0_30_20
*1661 FILLER_0_30_200
*1662 FILLER_0_30_214
*1663 FILLER_0_30_238
*1664 FILLER_0_30_246
*1665 FILLER_0_30_27
*1666 FILLER_0_30_276
*1667 FILLER_0_30_3
*1668 FILLER_0_30_307
*1669 FILLER_0_30_309
*1670 FILLER_0_30_41
*1671 FILLER_0_30_94
*1672 FILLER_0_31_108
*1673 FILLER_0_31_113
*1674 FILLER_0_31_123
*1675 FILLER_0_31_169
*1676 FILLER_0_31_179
*1677 FILLER_0_31_192
*1678 FILLER_0_31_198
*1679 FILLER_0_31_202
*1680 FILLER_0_31_206
*1681 FILLER_0_31_253
*1682 FILLER_0_31_263
*1683 FILLER_0_31_284
*1684 FILLER_0_31_3
*1685 FILLER_0_31_334
*1686 FILLER_0_31_45
*1687 FILLER_0_31_49
*1688 FILLER_0_31_74
*1689 FILLER_0_31_99
*1690 FILLER_0_32_121
*1691 FILLER_0_32_189
*1692 FILLER_0_32_195
*1693 FILLER_0_32_20
*1694 FILLER_0_32_204
*1695 FILLER_0_32_229
*1696 FILLER_0_32_234
*1697 FILLER_0_32_241
*1698 FILLER_0_32_245
*1699 FILLER_0_32_253
*1700 FILLER_0_32_26
*1701 FILLER_0_32_29
*1702 FILLER_0_32_295
*1703 FILLER_0_32_3
*1704 FILLER_0_32_37
*1705 FILLER_0_32_83
*1706 FILLER_0_32_9
*1707 FILLER_0_33_111
*1708 FILLER_0_33_213
*1709 FILLER_0_33_23
*1710 FILLER_0_33_275
*1711 FILLER_0_33_287
*1712 FILLER_0_33_38
*1713 FILLER_0_33_45
*1714 FILLER_0_33_57
*1715 FILLER_0_34_120
*1716 FILLER_0_34_131
*1717 FILLER_0_34_164
*1718 FILLER_0_34_17
*1719 FILLER_0_34_194
*1720 FILLER_0_34_206
*1721 FILLER_0_34_218
*1722 FILLER_0_34_222
*1723 FILLER_0_34_226
*1724 FILLER_0_34_23
*1725 FILLER_0_34_27
*1726 FILLER_0_34_3
*1727 FILLER_0_34_306
*1728 FILLER_0_34_38
*1729 FILLER_0_34_9
*1730 FILLER_0_34_93
*1731 FILLER_0_35_144