*SPEF "ieee 1481-1999"
*DESIGN "tt_um_faramire_stopwatch"
*DATE "19:10:50 Thursday April 18, 2024"
*VENDOR "The OpenROAD Project"
*PROGRAM "OpenROAD"
*VERSION "0889970d1790a2617e69f253221b8bd7626e51dc"
*DESIGN_FLOW "NAME_SCOPE LOCAL" "PIN_CAP NONE"
*DIVIDER /
*DELIMITER :
*BUS_DELIMITER []
*T_UNIT 1 NS
*C_UNIT 1 PF
*R_UNIT 1 OHM
*L_UNIT 1 HENRY

*NAME_MAP
*3 clk
*4 ena
*5 rst_n
*6 ui_in[0]
*7 ui_in[1]
*8 ui_in[2]
*9 ui_in[3]
*10 ui_in[4]
*11 ui_in[5]
*12 ui_in[6]
*13 ui_in[7]
*14 uio_in[0]
*15 uio_in[1]
*16 uio_in[2]
*17 uio_in[3]
*18 uio_in[4]
*19 uio_in[5]
*20 uio_in[6]
*21 uio_in[7]
*22 net11
*23 net12
*24 net13
*25 net14
*26 net15
*27 net16
*28 net17
*29 net18
*30 net19
*31 net20
*32 net21
*33 net22
*34 net23
*35 net24
*36 net25
*37 net26
*38 uo_out[0]
*39 uo_out[1]
*40 uo_out[2]
*41 uo_out[3]
*42 uo_out[4]
*43 net27
*44 net28
*45 net29
*46 SPI_wrapper1\.Clk_SPI
*47 SPI_wrapper1\.Cs
*48 SPI_wrapper1\.Mosi
*49 SPI_wrapper1\.SPI_Master1\.count_bit\[0\]
*50 SPI_wrapper1\.SPI_Master1\.count_bit\[1\]
*51 SPI_wrapper1\.SPI_Master1\.count_bit\[2\]
*52 SPI_wrapper1\.SPI_Master1\.count_bit\[3\]
*53 SPI_wrapper1\.SPI_Master1\.count_word\[0\]
*54 SPI_wrapper1\.SPI_Master1\.count_word\[1\]
*55 SPI_wrapper1\.SPI_Master1\.count_word\[2\]
*56 SPI_wrapper1\.SPI_Master1\.count_word\[3\]
*57 SPI_wrapper1\.SPI_Master1\.report_ready
*58 SPI_wrapper1\.SPI_Master1\.report_send
*59 SPI_wrapper1\.SPI_Master1\.res
*60 SPI_wrapper1\.SPI_Master1\.state\[0\]
*61 SPI_wrapper1\.SPI_Master1\.state\[1\]
*62 SPI_wrapper1\.SPI_Master1\.state\[2\]
*63 SPI_wrapper1\.SPI_Master1\.word_in\[0\]
*64 SPI_wrapper1\.SPI_Master1\.word_in\[10\]
*65 SPI_wrapper1\.SPI_Master1\.word_in\[11\]
*66 SPI_wrapper1\.SPI_Master1\.word_in\[12\]
*67 SPI_wrapper1\.SPI_Master1\.word_in\[13\]
*68 SPI_wrapper1\.SPI_Master1\.word_in\[14\]
*69 SPI_wrapper1\.SPI_Master1\.word_in\[15\]
*70 SPI_wrapper1\.SPI_Master1\.word_in\[1\]
*71 SPI_wrapper1\.SPI_Master1\.word_in\[2\]
*72 SPI_wrapper1\.SPI_Master1\.word_in\[3\]
*73 SPI_wrapper1\.SPI_Master1\.word_in\[4\]
*74 SPI_wrapper1\.SPI_Master1\.word_in\[5\]
*75 SPI_wrapper1\.SPI_Master1\.word_in\[6\]
*76 SPI_wrapper1\.SPI_Master1\.word_in\[7\]
*77 SPI_wrapper1\.SPI_Master1\.word_in\[8\]
*78 SPI_wrapper1\.SPI_Master1\.word_in\[9\]
*79 SPI_wrapper1\.SPI_Master1\.word_out\[0\]
*80 SPI_wrapper1\.SPI_Master1\.word_out\[10\]
*81 SPI_wrapper1\.SPI_Master1\.word_out\[11\]
*82 SPI_wrapper1\.SPI_Master1\.word_out\[12\]
*83 SPI_wrapper1\.SPI_Master1\.word_out\[13\]
*84 SPI_wrapper1\.SPI_Master1\.word_out\[14\]
*85 SPI_wrapper1\.SPI_Master1\.word_out\[15\]
*86 SPI_wrapper1\.SPI_Master1\.word_out\[1\]
*87 SPI_wrapper1\.SPI_Master1\.word_out\[2\]
*88 SPI_wrapper1\.SPI_Master1\.word_out\[3\]
*89 SPI_wrapper1\.SPI_Master1\.word_out\[4\]
*90 SPI_wrapper1\.SPI_Master1\.word_out\[5\]
*91 SPI_wrapper1\.SPI_Master1\.word_out\[6\]
*92 SPI_wrapper1\.SPI_Master1\.word_out\[7\]
*93 SPI_wrapper1\.SPI_Master1\.word_out\[8\]
*94 SPI_wrapper1\.SPI_Master1\.word_out\[9\]
*95 SPI_wrapper1\.ces_0X\[0\]
*96 SPI_wrapper1\.ces_0X\[1\]
*97 SPI_wrapper1\.ces_0X\[2\]
*98 SPI_wrapper1\.ces_0X\[3\]
*99 SPI_wrapper1\.ces_X0\[0\]
*100 SPI_wrapper1\.ces_X0\[1\]
*101 SPI_wrapper1\.ces_X0\[2\]
*102 SPI_wrapper1\.ces_X0\[3\]
*103 SPI_wrapper1\.clk_div
*104 SPI_wrapper1\.digit_count\[0\]
*105 SPI_wrapper1\.digit_count\[1\]
*106 SPI_wrapper1\.digit_count\[2\]
*107 SPI_wrapper1\.digit_count\[3\]
*108 SPI_wrapper1\.digit_count\[4\]
*109 SPI_wrapper1\.digit_count\[5\]
*110 SPI_wrapper1\.digit_count\[6\]
*111 SPI_wrapper1\.ena
*112 SPI_wrapper1\.min_0X\[0\]
*113 SPI_wrapper1\.min_0X\[1\]
*114 SPI_wrapper1\.min_0X\[2\]
*115 SPI_wrapper1\.min_0X\[3\]
*116 SPI_wrapper1\.min_X0\[0\]
*117 SPI_wrapper1\.min_X0\[1\]
*118 SPI_wrapper1\.min_X0\[2\]
*119 SPI_wrapper1\.sec_0X\[0\]
*120 SPI_wrapper1\.sec_0X\[1\]
*121 SPI_wrapper1\.sec_0X\[2\]
*122 SPI_wrapper1\.sec_0X\[3\]
*123 SPI_wrapper1\.sec_X0\[0\]
*124 SPI_wrapper1\.sec_X0\[1\]
*125 SPI_wrapper1\.sec_X0\[2\]
*126 SPI_wrapper1\.state\[0\]
*127 SPI_wrapper1\.state\[1\]
*128 SPI_wrapper1\.state\[2\]
*129 _000_
*130 _001_
*131 _002_
*132 _003_
*133 _004_
*134 _005_
*135 _006_
*136 _007_
*137 _008_
*138 _009_
*139 _010_
*140 _011_
*141 _012_
*142 _013_
*143 _014_
*144 _015_
*145 _016_
*146 _017_
*147 _018_
*148 _019_
*149 _020_
*150 _021_
*151 _022_
*152 _023_
*153 _024_
*154 _025_
*155 _026_
*156 _027_
*157 _028_
*158 _029_
*159 _030_
*160 _031_
*161 _032_
*162 _033_
*163 _034_
*164 _035_
*165 _036_
*166 _037_
*167 _038_
*168 _039_
*169 _040_
*170 _041_
*171 _042_
*172 _043_
*173 _044_
*174 _045_
*175 _046_
*176 _047_
*177 _048_
*178 _049_
*179 _050_
*180 _051_
*181 _052_
*182 _053_
*183 _054_
*184 _055_
*185 _056_
*186 _057_
*187 _058_
*188 _059_
*189 _060_
*190 _061_
*191 _062_
*192 _063_
*193 _064_
*194 _065_
*195 _066_
*196 _067_
*197 _068_
*198 _069_
*199 _070_
*200 _071_
*201 _072_
*202 _073_
*203 _074_
*204 _075_
*205 _076_
*206 _077_
*207 _078_
*208 _080_
*209 _081_
*210 _082_
*211 _083_
*212 _084_
*213 _085_
*214 _086_
*215 _087_
*216 _088_
*217 _089_
*218 _090_
*219 _091_
*220 _092_
*221 _093_
*222 _094_
*223 _095_
*224 _096_
*225 _097_
*226 _098_
*227 _099_
*228 _100_
*229 _101_
*230 _102_
*231 _103_
*232 _104_
*233 _105_
*234 _106_
*235 _107_
*236 _108_
*237 _109_
*238 _110_
*239 _111_
*240 _112_
*241 _113_
*242 _114_
*243 _115_
*244 _116_
*245 _117_
*246 _118_
*247 _119_
*248 _120_
*249 _121_
*250 _122_
*251 _123_
*252 _124_
*253 _125_
*254 _126_
*255 _127_
*256 _128_
*257 _129_
*258 _130_
*259 _131_
*260 _132_
*261 _133_
*262 _134_
*263 _135_
*264 _136_
*265 _137_
*266 _138_
*267 _139_
*268 _140_
*269 _141_
*270 _142_
*271 _143_
*272 _144_
*273 _145_
*274 _146_
*275 _147_
*276 _148_
*277 _149_
*278 _150_
*279 _151_
*280 _152_
*281 _153_
*282 _154_
*283 _155_
*284 _156_
*285 _157_
*286 _158_
*287 _159_
*288 _160_
*289 _161_
*290 _162_
*291 _163_
*292 _164_
*293 _165_
*294 _166_
*295 _167_
*296 _168_
*297 _169_
*298 _170_
*299 _171_
*300 _172_
*301 _173_
*302 _174_
*303 _175_
*304 _176_
*305 _177_
*306 _178_
*307 _179_
*308 _180_
*309 _181_
*310 _182_
*311 _183_
*312 _184_
*313 _185_
*314 _186_
*315 _187_
*316 _188_
*317 _189_
*318 _190_
*319 _191_
*320 _192_
*321 _193_
*322 _194_
*323 _195_
*324 _196_
*325 _197_
*326 _198_
*327 _199_
*328 _200_
*329 _201_
*330 _202_
*331 _203_
*332 _204_
*333 _205_
*334 _206_
*335 _207_
*336 _208_
*337 _209_
*338 _210_
*339 _211_
*340 _212_
*341 _213_
*342 _214_
*343 _215_
*344 _216_
*345 _217_
*346 _218_
*347 _219_
*348 _220_
*349 _221_
*350 _222_
*351 _223_
*352 _224_
*353 _225_
*354 _226_
*355 _227_
*356 _228_
*357 _229_
*358 _230_
*359 _231_
*360 _232_
*361 _233_
*362 _234_
*363 _235_
*364 _236_
*365 _237_
*366 _238_
*367 _239_
*368 _240_
*369 _241_
*370 _242_
*371 _243_
*372 _244_
*373 _245_
*374 _246_
*375 _247_
*376 _248_
*377 _249_
*378 _250_
*379 _251_
*380 _252_
*381 _253_
*382 _254_
*383 _255_
*384 _256_
*385 _257_
*386 _258_
*387 _259_
*388 _260_
*389 _261_
*390 _262_
*391 _263_
*392 _264_
*393 _265_
*394 _266_
*395 _267_
*396 _268_
*397 _269_
*398 _270_
*399 _271_
*400 _272_
*401 _273_
*402 _274_
*403 _275_
*404 _276_
*405 _277_
*406 _278_
*407 _279_
*408 _280_
*409 _281_
*410 _282_
*411 _283_
*412 _284_
*413 _285_
*414 _286_
*415 _287_
*416 _288_
*417 _289_
*418 _290_
*419 _291_
*420 _292_
*421 _293_
*422 _294_
*423 _295_
*424 _296_
*425 _297_
*426 _298_
*427 _299_
*428 _300_
*429 _301_
*430 _302_
*431 _303_
*432 _304_
*433 _305_
*434 _306_
*435 _307_
*436 _308_
*437 _309_
*438 _310_
*439 _311_
*440 _312_
*441 _313_
*442 _314_
*443 _315_
*444 _316_
*445 _317_
*446 _318_
*447 _319_
*448 _320_
*449 _321_
*450 _322_
*451 _323_
*452 _324_
*453 _325_
*454 _326_
*455 _327_
*456 _328_
*457 _329_
*458 _330_
*459 _331_
*460 _332_
*461 _333_
*462 _334_
*463 _335_
*464 _336_
*465 _337_
*466 _338_
*467 _339_
*468 _340_
*469 _341_
*470 _342_
*471 _343_
*472 _344_
*473 _345_
*474 _346_
*475 _347_
*476 _348_
*477 _349_
*478 _350_
*479 _351_
*480 _352_
*481 _353_
*482 _354_
*483 _355_
*484 _356_
*485 _357_
*486 _358_
*487 _359_
*488 _360_
*489 _361_
*490 _362_
*491 _363_
*492 _364_
*493 _365_
*494 _366_
*495 clknet_0_clk
*496 clknet_0_clockDivider1\.clk_in
*497 clknet_1_0__leaf_clockDivider1\.clk_in
*498 clknet_1_1__leaf_clockDivider1\.clk_in
*499 clknet_3_0__leaf_clk
*500 clknet_3_1__leaf_clk
*501 clknet_3_2__leaf_clk
*502 clknet_3_3__leaf_clk
*503 clknet_3_4__leaf_clk
*504 clknet_3_5__leaf_clk
*505 clknet_3_6__leaf_clk
*506 clknet_3_7__leaf_clk
*507 clockDivider1\.clk_in
*508 clockDivider1\.counter\[0\]
*509 clockDivider1\.counter\[10\]
*510 clockDivider1\.counter\[11\]
*511 clockDivider1\.counter\[12\]
*512 clockDivider1\.counter\[13\]
*513 clockDivider1\.counter\[1\]
*514 clockDivider1\.counter\[2\]
*515 clockDivider1\.counter\[3\]
*516 clockDivider1\.counter\[4\]
*517 clockDivider1\.counter\[5\]
*518 clockDivider1\.counter\[6\]
*519 clockDivider1\.counter\[7\]
*520 clockDivider1\.counter\[8\]
*521 clockDivider1\.counter\[9\]
*522 controller1\.counter_enable
*523 counter_chain1\.ces_X0_ena
*524 counter_chain1\.inst_ces_X0\.max
*525 counter_chain1\.inst_min_0X\.max
*526 counter_chain1\.inst_sec_0X\.max
*527 counter_chain1\.inst_sec_X0\.max
*528 net1
*529 net10
*530 net2
*531 net3
*532 net30
*533 net31
*534 net32
*535 net33
*536 net34
*537 net35
*538 net36
*539 net37
*540 net38
*541 net39
*542 net4
*543 net40
*544 net41
*545 net42
*546 net43
*547 net44
*548 net45
*549 net46
*550 net47
*551 net48
*552 net49
*553 net5
*554 net50
*555 net51
*556 net52
*557 net53
*558 net54
*559 net55
*560 net56
*561 net57
*562 net58
*563 net59
*564 net6
*565 net60
*566 net61
*567 net62
*568 net63
*569 net64
*570 net65
*571 net66
*572 net67
*573 net68
*574 net69
*575 net7
*576 net70
*577 net71
*578 net72
*579 net73
*580 net74
*581 net75
*582 net76
*583 net77
*584 net78
*585 net79
*586 net8
*587 net80
*588 net81
*589 net82
*590 net83
*591 net84
*592 net85
*593 net86
*594 net87
*595 net88
*596 net89
*597 net9
*598 net90
*599 FILLER_0_0_109
*600 FILLER_0_0_113
*601 FILLER_0_0_125
*602 FILLER_0_0_137
*603 FILLER_0_0_141
*604 FILLER_0_0_15
*605 FILLER_0_0_153
*606 FILLER_0_0_165
*607 FILLER_0_0_169
*608 FILLER_0_0_181
*609 FILLER_0_0_193
*610 FILLER_0_0_197
*611 FILLER_0_0_209
*612 FILLER_0_0_221
*613 FILLER_0_0_225
*614 FILLER_0_0_237
*615 FILLER_0_0_249
*616 FILLER_0_0_253
*617 FILLER_0_0_265
*618 FILLER_0_0_27
*619 FILLER_0_0_277
*620 FILLER_0_0_281
*621 FILLER_0_0_29
*622 FILLER_0_0_293
*623 FILLER_0_0_3
*624 FILLER_0_0_305
*625 FILLER_0_0_309
*626 FILLER_0_0_321
*627 FILLER_0_0_333
*628 FILLER_0_0_41
*629 FILLER_0_0_53
*630 FILLER_0_0_57
*631 FILLER_0_0_69
*632 FILLER_0_0_81
*633 FILLER_0_0_85
*634 FILLER_0_0_97
*635 FILLER_0_10_109
*636 FILLER_0_10_121
*637 FILLER_0_10_133
*638 FILLER_0_10_139
*639 FILLER_0_10_141
*640 FILLER_0_10_15
*641 FILLER_0_10_153
*642 FILLER_0_10_165
*643 FILLER_0_10_177
*644 FILLER_0_10_183
*645 FILLER_0_10_223
*646 FILLER_0_10_256
*647 FILLER_0_10_260
*648 FILLER_0_10_27
*649 FILLER_0_10_282
*650 FILLER_0_10_29
*651 FILLER_0_10_294
*652 FILLER_0_10_3
*653 FILLER_0_10_306
*654 FILLER_0_10_309
*655 FILLER_0_10_321
*656 FILLER_0_10_333
*657 FILLER_0_10_41
*658 FILLER_0_10_53
*659 FILLER_0_10_65
*660 FILLER_0_10_77
*661 FILLER_0_10_83
*662 FILLER_0_10_85
*663 FILLER_0_10_97
*664 FILLER_0_11_105
*665 FILLER_0_11_111
*666 FILLER_0_11_113
*667 FILLER_0_11_125
*668 FILLER_0_11_137
*669 FILLER_0_11_149
*670 FILLER_0_11_15
*671 FILLER_0_11_161
*672 FILLER_0_11_167
*673 FILLER_0_11_169
*674 FILLER_0_11_181
*675 FILLER_0_11_189
*676 FILLER_0_11_213
*677 FILLER_0_11_223
*678 FILLER_0_11_225
*679 FILLER_0_11_231
*680 FILLER_0_11_239
*681 FILLER_0_11_252
*682 FILLER_0_11_264
*683 FILLER_0_11_269
*684 FILLER_0_11_27
*685 FILLER_0_11_277
*686 FILLER_0_11_281
*687 FILLER_0_11_293
*688 FILLER_0_11_3
*689 FILLER_0_11_305
*690 FILLER_0_11_317
*691 FILLER_0_11_329
*692 FILLER_0_11_39
*693 FILLER_0_11_51
*694 FILLER_0_11_55
*695 FILLER_0_11_57
*696 FILLER_0_11_69
*697 FILLER_0_11_81
*698 FILLER_0_11_93
*699 FILLER_0_12_109
*700 FILLER_0_12_121
*701 FILLER_0_12_133
*702 FILLER_0_12_139
*703 FILLER_0_12_141
*704 FILLER_0_12_15
*705 FILLER_0_12_153
*706 FILLER_0_12_165
*707 FILLER_0_12_177
*708 FILLER_0_12_189
*709 FILLER_0_12_195
*710 FILLER_0_12_197
*711 FILLER_0_12_202
*712 FILLER_0_12_214
*713 FILLER_0_12_226
*714 FILLER_0_12_234
*715 FILLER_0_12_239
*716 FILLER_0_12_243
*717 FILLER_0_12_248
*718 FILLER_0_12_253
*719 FILLER_0_12_265
*720 FILLER_0_12_27
*721 FILLER_0_12_277
*722 FILLER_0_12_289
*723 FILLER_0_12_29
*724 FILLER_0_12_297
*725 FILLER_0_12_3
*726 FILLER_0_12_305
*727 FILLER_0_12_309
*728 FILLER_0_12_321
*729 FILLER_0_12_333
*730 FILLER_0_12_41
*731 FILLER_0_12_53
*732 FILLER_0_12_65
*733 FILLER_0_12_77
*734 FILLER_0_12_83
*735 FILLER_0_12_85
*736 FILLER_0_12_97
*737 FILLER_0_13_105
*738 FILLER_0_13_111
*739 FILLER_0_13_113
*740 FILLER_0_13_125
*741 FILLER_0_13_137
*742 FILLER_0_13_149
*743 FILLER_0_13_15
*744 FILLER_0_13_161
*745 FILLER_0_13_167
*746 FILLER_0_13_169
*747 FILLER_0_13_181
*748 FILLER_0_13_193
*749 FILLER_0_13_205
*750 FILLER_0_13_216
*751 FILLER_0_13_225
*752 FILLER_0_13_229
*753 FILLER_0_13_254
*754 FILLER_0_13_27
*755 FILLER_0_13_274
*756 FILLER_0_13_292
*757 FILLER_0_13_3
*758 FILLER_0_13_304
*759 FILLER_0_13_314
*760 FILLER_0_13_331
*761 FILLER_0_13_39
*762 FILLER_0_13_51
*763 FILLER_0_13_55
*764 FILLER_0_13_57
*765 FILLER_0_13_69
*766 FILLER_0_13_81
*767 FILLER_0_13_93
*768 FILLER_0_14_109
*769 FILLER_0_14_121
*770 FILLER_0_14_133
*771 FILLER_0_14_139
*772 FILLER_0_14_141
*773 FILLER_0_14_15
*774 FILLER_0_14_153
*775 FILLER_0_14_165
*776 FILLER_0_14_177
*777 FILLER_0_14_207
*778 FILLER_0_14_243
*779 FILLER_0_14_253
*780 FILLER_0_14_27
*781 FILLER_0_14_29
*782 FILLER_0_14_3
*783 FILLER_0_14_330
*784 FILLER_0_14_334
*785 FILLER_0_14_41
*786 FILLER_0_14_53
*787 FILLER_0_14_65
*788 FILLER_0_14_77
*789 FILLER_0_14_83
*790 FILLER_0_14_85
*791 FILLER_0_14_97
*792 FILLER_0_15_105
*793 FILLER_0_15_111
*794 FILLER_0_15_113
*795 FILLER_0_15_125
*796 FILLER_0_15_137
*797 FILLER_0_15_143
*798 FILLER_0_15_15
*799 FILLER_0_15_164
*800 FILLER_0_15_169
*801 FILLER_0_15_181
*802 FILLER_0_15_187
*803 FILLER_0_15_236
*804 FILLER_0_15_243
*805 FILLER_0_15_251
*806 FILLER_0_15_260
*807 FILLER_0_15_27
*808 FILLER_0_15_277
*809 FILLER_0_15_297
*810 FILLER_0_15_3
*811 FILLER_0_15_320
*812 FILLER_0_15_332
*813 FILLER_0_15_39
*814 FILLER_0_15_51
*815 FILLER_0_15_55
*816 FILLER_0_15_57
*817 FILLER_0_15_69
*818 FILLER_0_15_81
*819 FILLER_0_15_93
*820 FILLER_0_16_109
*821 FILLER_0_16_121
*822 FILLER_0_16_133
*823 FILLER_0_16_139
*824 FILLER_0_16_141
*825 FILLER_0_16_15
*826 FILLER_0_16_175
*827 FILLER_0_16_187
*828 FILLER_0_16_191
*829 FILLER_0_16_197
*830 FILLER_0_16_205
*831 FILLER_0_16_209
*832 FILLER_0_16_229
*833 FILLER_0_16_241
*834 FILLER_0_16_249
*835 FILLER_0_16_253
*836 FILLER_0_16_265
*837 FILLER_0_16_269
*838 FILLER_0_16_27
*839 FILLER_0_16_274
*840 FILLER_0_16_286
*841 FILLER_0_16_29
*842 FILLER_0_16_298
*843 FILLER_0_16_3
*844 FILLER_0_16_305
*845 FILLER_0_16_313
*846 FILLER_0_16_325
*847 FILLER_0_16_333
*848 FILLER_0_16_41
*849 FILLER_0_16_53
*850 FILLER_0_16_65
*851 FILLER_0_16_77
*852 FILLER_0_16_83
*853 FILLER_0_16_85
*854 FILLER_0_16_97
*855 FILLER_0_17_105
*856 FILLER_0_17_111
*857 FILLER_0_17_113
*858 FILLER_0_17_125
*859 FILLER_0_17_137
*860 FILLER_0_17_15
*861 FILLER_0_17_159
*862 FILLER_0_17_166
*863 FILLER_0_17_176
*864 FILLER_0_17_195
*865 FILLER_0_17_207
*866 FILLER_0_17_219
*867 FILLER_0_17_223
*868 FILLER_0_17_225
*869 FILLER_0_17_233
*870 FILLER_0_17_239
*871 FILLER_0_17_251
*872 FILLER_0_17_263
*873 FILLER_0_17_27
*874 FILLER_0_17_285
*875 FILLER_0_17_297
*876 FILLER_0_17_3
*877 FILLER_0_17_306
*878 FILLER_0_17_330
*879 FILLER_0_17_334
*880 FILLER_0_17_39
*881 FILLER_0_17_51
*882 FILLER_0_17_55
*883 FILLER_0_17_57
*884 FILLER_0_17_69
*885 FILLER_0_17_81
*886 FILLER_0_17_93
*887 FILLER_0_18_109
*888 FILLER_0_18_121
*889 FILLER_0_18_133
*890 FILLER_0_18_139
*891 FILLER_0_18_141
*892 FILLER_0_18_15
*893 FILLER_0_18_170
*894 FILLER_0_18_182
*895 FILLER_0_18_193
*896 FILLER_0_18_197
*897 FILLER_0_18_209
*898 FILLER_0_18_221
*899 FILLER_0_18_226
*900 FILLER_0_18_249
*901 FILLER_0_18_269
*902 FILLER_0_18_27
*903 FILLER_0_18_29
*904 FILLER_0_18_3
*905 FILLER_0_18_304
*906 FILLER_0_18_333
*907 FILLER_0_18_41
*908 FILLER_0_18_53
*909 FILLER_0_18_65
*910 FILLER_0_18_77
*911 FILLER_0_18_83
*912 FILLER_0_18_85
*913 FILLER_0_18_97
*914 FILLER_0_19_105
*915 FILLER_0_19_111
*916 FILLER_0_19_113
*917 FILLER_0_19_125
*918 FILLER_0_19_137
*919 FILLER_0_19_149
*920 FILLER_0_19_15
*921 FILLER_0_19_161
*922 FILLER_0_19_167
*923 FILLER_0_19_169
*924 FILLER_0_19_177
*925 FILLER_0_19_193
*926 FILLER_0_19_209
*927 FILLER_0_19_27
*928 FILLER_0_19_287
*929 FILLER_0_19_299
*930 FILLER_0_19_3
*931 FILLER_0_19_324
*932 FILLER_0_19_332
*933 FILLER_0_19_39
*934 FILLER_0_19_51
*935 FILLER_0_19_55
*936 FILLER_0_19_57
*937 FILLER_0_19_69
*938 FILLER_0_19_81
*939 FILLER_0_19_93
*940 FILLER_0_1_105
*941 FILLER_0_1_111
*942 FILLER_0_1_113
*943 FILLER_0_1_125
*944 FILLER_0_1_137
*945 FILLER_0_1_149
*946 FILLER_0_1_15
*947 FILLER_0_1_161
*948 FILLER_0_1_167
*949 FILLER_0_1_169
*950 FILLER_0_1_181
*951 FILLER_0_1_193
*952 FILLER_0_1_205
*953 FILLER_0_1_217
*954 FILLER_0_1_223
*955 FILLER_0_1_225
*956 FILLER_0_1_237
*957 FILLER_0_1_249
*958 FILLER_0_1_261
*959 FILLER_0_1_27
*960 FILLER_0_1_273
*961 FILLER_0_1_279
*962 FILLER_0_1_281
*963 FILLER_0_1_293
*964 FILLER_0_1_3
*965 FILLER_0_1_305
*966 FILLER_0_1_317
*967 FILLER_0_1_329
*968 FILLER_0_1_39
*969 FILLER_0_1_51
*970 FILLER_0_1_55
*971 FILLER_0_1_57
*972 FILLER_0_1_69
*973 FILLER_0_1_81
*974 FILLER_0_1_93
*975 FILLER_0_20_109
*976 FILLER_0_20_121
*977 FILLER_0_20_133
*978 FILLER_0_20_139
*979 FILLER_0_20_15
*980 FILLER_0_20_157
*981 FILLER_0_20_164
*982 FILLER_0_20_172
*983 FILLER_0_20_205
*984 FILLER_0_20_217
*985 FILLER_0_20_236
*986 FILLER_0_20_244
*987 FILLER_0_20_250
*988 FILLER_0_20_258
*989 FILLER_0_20_262
*990 FILLER_0_20_266
*991 FILLER_0_20_27
*992 FILLER_0_20_278
*993 FILLER_0_20_29
*994 FILLER_0_20_290
*995 FILLER_0_20_3
*996 FILLER_0_20_302
*997 FILLER_0_20_324
*998 FILLER_0_20_332
*999 FILLER_0_20_41
*1000 FILLER_0_20_53
*1001 FILLER_0_20_65
*1002 FILLER_0_20_77
*1003 FILLER_0_20_83
*1004 FILLER_0_20_85
*1005 FILLER_0_20_97
*1006 FILLER_0_21_105
*1007 FILLER_0_21_111
*1008 FILLER_0_21_113
*1009 FILLER_0_21_125
*1010 FILLER_0_21_15
*1011 FILLER_0_21_163
*1012 FILLER_0_21_193
*1013 FILLER_0_21_205
*1014 FILLER_0_21_213
*1015 FILLER_0_21_221
*1016 FILLER_0_21_225
*1017 FILLER_0_21_237
*1018 FILLER_0_21_248
*1019 FILLER_0_21_266
*1020 FILLER_0_21_27
*1021 FILLER_0_21_273
*1022 FILLER_0_21_279
*1023 FILLER_0_21_281
*1024 FILLER_0_21_292
*1025 FILLER_0_21_3
*1026 FILLER_0_21_300
*1027 FILLER_0_21_316
*1028 FILLER_0_21_328
*1029 FILLER_0_21_334
*1030 FILLER_0_21_39
*1031 FILLER_0_21_51
*1032 FILLER_0_21_55
*1033 FILLER_0_21_57
*1034 FILLER_0_21_69
*1035 FILLER_0_21_81
*1036 FILLER_0_21_93
*1037 FILLER_0_22_109
*1038 FILLER_0_22_120
*1039 FILLER_0_22_132
*1040 FILLER_0_22_141
*1041 FILLER_0_22_148
*1042 FILLER_0_22_15
*1043 FILLER_0_22_158
*1044 FILLER_0_22_170
*1045 FILLER_0_22_185
*1046 FILLER_0_22_193
*1047 FILLER_0_22_197
*1048 FILLER_0_22_209
*1049 FILLER_0_22_229
*1050 FILLER_0_22_235
*1051 FILLER_0_22_243
*1052 FILLER_0_22_250
*1053 FILLER_0_22_253
*1054 FILLER_0_22_27
*1055 FILLER_0_22_276
*1056 FILLER_0_22_288
*1057 FILLER_0_22_29
*1058 FILLER_0_22_296
*1059 FILLER_0_22_3
*1060 FILLER_0_22_301
*1061 FILLER_0_22_307
*1062 FILLER_0_22_324
*1063 FILLER_0_22_332
*1064 FILLER_0_22_41
*1065 FILLER_0_22_53
*1066 FILLER_0_22_65
*1067 FILLER_0_22_77
*1068 FILLER_0_22_83
*1069 FILLER_0_22_85
*1070 FILLER_0_22_97
*1071 FILLER_0_23_110
*1072 FILLER_0_23_137
*1073 FILLER_0_23_15
*1074 FILLER_0_23_158
*1075 FILLER_0_23_166
*1076 FILLER_0_23_169
*1077 FILLER_0_23_181
*1078 FILLER_0_23_192
*1079 FILLER_0_23_198
*1080 FILLER_0_23_206
*1081 FILLER_0_23_233
*1082 FILLER_0_23_261
*1083 FILLER_0_23_27
*1084 FILLER_0_23_281
*1085 FILLER_0_23_292
*1086 FILLER_0_23_298
*1087 FILLER_0_23_3
*1088 FILLER_0_23_330
*1089 FILLER_0_23_334
*1090 FILLER_0_23_39
*1091 FILLER_0_23_51
*1092 FILLER_0_23_55
*1093 FILLER_0_23_57
*1094 FILLER_0_23_69
*1095 FILLER_0_23_81
*1096 FILLER_0_23_93
*1097 FILLER_0_23_99
*1098 FILLER_0_24_108
*1099 FILLER_0_24_113
*1100 FILLER_0_24_124
*1101 FILLER_0_24_130
*1102 FILLER_0_24_15
*1103 FILLER_0_24_160
*1104 FILLER_0_24_168
*1105 FILLER_0_24_193
*1106 FILLER_0_24_213
*1107 FILLER_0_24_247
*1108 FILLER_0_24_251
*1109 FILLER_0_24_253
*1110 FILLER_0_24_261
*1111 FILLER_0_24_27
*1112 FILLER_0_24_271
*1113 FILLER_0_24_281
*1114 FILLER_0_24_289
*1115 FILLER_0_24_29
*1116 FILLER_0_24_296
*1117 FILLER_0_24_3
*1118 FILLER_0_24_302
*1119 FILLER_0_24_328
*1120 FILLER_0_24_334
*1121 FILLER_0_24_41
*1122 FILLER_0_24_53
*1123 FILLER_0_24_65
*1124 FILLER_0_24_77
*1125 FILLER_0_24_83
*1126 FILLER_0_24_85
*1127 FILLER_0_24_91
*1128 FILLER_0_25_101
*1129 FILLER_0_25_129
*1130 FILLER_0_25_137
*1131 FILLER_0_25_15
*1132 FILLER_0_25_163
*1133 FILLER_0_25_167
*1134 FILLER_0_25_169
*1135 FILLER_0_25_201
*1136 FILLER_0_25_207
*1137 FILLER_0_25_215
*1138 FILLER_0_25_223
*1139 FILLER_0_25_232
*1140 FILLER_0_25_238
*1141 FILLER_0_25_27
*1142 FILLER_0_25_278
*1143 FILLER_0_25_281
*1144 FILLER_0_25_289
*1145 FILLER_0_25_3
*1146 FILLER_0_25_300
*1147 FILLER_0_25_312
*1148 FILLER_0_25_331
*1149 FILLER_0_25_39
*1150 FILLER_0_25_51
*1151 FILLER_0_25_55
*1152 FILLER_0_25_57
*1153 FILLER_0_25_69
*1154 FILLER_0_25_81
*1155 FILLER_0_25_93
*1156 FILLER_0_26_102
*1157 FILLER_0_26_113
*1158 FILLER_0_26_117
*1159 FILLER_0_26_133
*1160 FILLER_0_26_139
*1161 FILLER_0_26_141
*1162 FILLER_0_26_145
*1163 FILLER_0_26_15
*1164 FILLER_0_26_158
*1165 FILLER_0_26_166
*1166 FILLER_0_26_192
*1167 FILLER_0_26_224
*1168 FILLER_0_26_238
*1169 FILLER_0_26_250
*1170 FILLER_0_26_258
*1171 FILLER_0_26_27
*1172 FILLER_0_26_29
*1173 FILLER_0_26_293
*1174 FILLER_0_26_3
*1175 FILLER_0_26_306
*1176 FILLER_0_26_309
*1177 FILLER_0_26_321
*1178 FILLER_0_26_333
*1179 FILLER_0_26_41
*1180 FILLER_0_26_53
*1181 FILLER_0_26_65
*1182 FILLER_0_26_77
*1183 FILLER_0_26_83
*1184 FILLER_0_26_85
*1185 FILLER_0_27_113
*1186 FILLER_0_27_135
*1187 FILLER_0_27_140
*1188 FILLER_0_27_15
*1189 FILLER_0_27_161
*1190 FILLER_0_27_167
*1191 FILLER_0_27_197
*1192 FILLER_0_27_201
*1193 FILLER_0_27_208
*1194 FILLER_0_27_220
*1195 FILLER_0_27_228
*1196 FILLER_0_27_240
*1197 FILLER_0_27_245
*1198 FILLER_0_27_257
*1199 FILLER_0_27_27
*1200 FILLER_0_27_278
*1201 FILLER_0_27_284
*1202 FILLER_0_27_3
*1203 FILLER_0_27_328
*1204 FILLER_0_27_334
*1205 FILLER_0_27_39
*1206 FILLER_0_27_51
*1207 FILLER_0_27_55
*1208 FILLER_0_27_57
*1209 FILLER_0_27_69
*1210 FILLER_0_27_81
*1211 FILLER_0_28_126
*1212 FILLER_0_28_15
*1213 FILLER_0_28_157
*1214 FILLER_0_28_169
*1215 FILLER_0_28_192
*1216 FILLER_0_28_214
*1217 FILLER_0_28_222
*1218 FILLER_0_28_228
*1219 FILLER_0_28_258
*1220 FILLER_0_28_262
*1221 FILLER_0_28_269
*1222 FILLER_0_28_27
*1223 FILLER_0_28_280
*1224 FILLER_0_28_29
*1225 FILLER_0_28_3
*1226 FILLER_0_28_306
*1227 FILLER_0_28_314
*1228 FILLER_0_28_331
*1229 FILLER_0_28_41
*1230 FILLER_0_28_53
*1231 FILLER_0_28_65
*1232 FILLER_0_28_77
*1233 FILLER_0_28_83
*1234 FILLER_0_28_85
*1235 FILLER_0_28_89
*1236 FILLER_0_29_104
*1237 FILLER_0_29_113
*1238 FILLER_0_29_122
*1239 FILLER_0_29_15
*1240 FILLER_0_29_169
*1241 FILLER_0_29_217
*1242 FILLER_0_29_223
*1243 FILLER_0_29_260
*1244 FILLER_0_29_268
*1245 FILLER_0_29_27
*1246 FILLER_0_29_289
*1247 FILLER_0_29_295
*1248 FILLER_0_29_3
*1249 FILLER_0_29_323
*1250 FILLER_0_29_39
*1251 FILLER_0_29_51
*1252 FILLER_0_29_55
*1253 FILLER_0_29_57
*1254 FILLER_0_29_69
*1255 FILLER_0_29_81
*1256 FILLER_0_29_87
*1257 FILLER_0_2_109
*1258 FILLER_0_2_121
*1259 FILLER_0_2_133
*1260 FILLER_0_2_139
*1261 FILLER_0_2_141
*1262 FILLER_0_2_15
*1263 FILLER_0_2_153
*1264 FILLER_0_2_165
*1265 FILLER_0_2_177
*1266 FILLER_0_2_189
*1267 FILLER_0_2_195
*1268 FILLER_0_2_197
*1269 FILLER_0_2_209
*1270 FILLER_0_2_221
*1271 FILLER_0_2_233
*1272 FILLER_0_2_245
*1273 FILLER_0_2_251
*1274 FILLER_0_2_253
*1275 FILLER_0_2_265
*1276 FILLER_0_2_27
*1277 FILLER_0_2_277
*1278 FILLER_0_2_289
*1279 FILLER_0_2_29
*1280 FILLER_0_2_3
*1281 FILLER_0_2_301
*1282 FILLER_0_2_307
*1283 FILLER_0_2_309
*1284 FILLER_0_2_321
*1285 FILLER_0_2_333
*1286 FILLER_0_2_41
*1287 FILLER_0_2_53
*1288 FILLER_0_2_65
*1289 FILLER_0_2_77
*1290 FILLER_0_2_83
*1291 FILLER_0_2_85
*1292 FILLER_0_2_97
*1293 FILLER_0_30_114
*1294 FILLER_0_30_124
*1295 FILLER_0_30_141
*1296 FILLER_0_30_15
*1297 FILLER_0_30_161
*1298 FILLER_0_30_173
*1299 FILLER_0_30_179
*1300 FILLER_0_30_205
*1301 FILLER_0_30_245
*1302 FILLER_0_30_269
*1303 FILLER_0_30_27
*1304 FILLER_0_30_276
*1305 FILLER_0_30_284
*1306 FILLER_0_30_29
*1307 FILLER_0_30_3
*1308 FILLER_0_30_314
*1309 FILLER_0_30_332
*1310 FILLER_0_30_41
*1311 FILLER_0_30_53
*1312 FILLER_0_30_65
*1313 FILLER_0_30_77
*1314 FILLER_0_30_83
*1315 FILLER_0_30_85
*1316 FILLER_0_30_91
*1317 FILLER_0_30_95
*1318 FILLER_0_31_131
*1319 FILLER_0_31_15
*1320 FILLER_0_31_161
*1321 FILLER_0_31_167
*1322 FILLER_0_31_169
*1323 FILLER_0_31_202
*1324 FILLER_0_31_214
*1325 FILLER_0_31_221
*1326 FILLER_0_31_225
*1327 FILLER_0_31_229
*1328 FILLER_0_31_238
*1329 FILLER_0_31_242
*1330 FILLER_0_31_267
*1331 FILLER_0_31_27
*1332 FILLER_0_31_288
*1333 FILLER_0_31_3
*1334 FILLER_0_31_300
*1335 FILLER_0_31_307
*1336 FILLER_0_31_318
*1337 FILLER_0_31_330
*1338 FILLER_0_31_334
*1339 FILLER_0_31_39
*1340 FILLER_0_31_51
*1341 FILLER_0_31_55
*1342 FILLER_0_31_57
*1343 FILLER_0_31_69
*1344 FILLER_0_31_81
*1345 FILLER_0_32_106
*1346 FILLER_0_32_136
*1347 FILLER_0_32_141
*1348 FILLER_0_32_149
*1349 FILLER_0_32_15
*1350 FILLER_0_32_168
*1351 FILLER_0_32_176
*1352 FILLER_0_32_205
*1353 FILLER_0_32_234
*1354 FILLER_0_32_242
*1355 FILLER_0_32_27
*1356 FILLER_0_32_270
*1357 FILLER_0_32_274
*1358 FILLER_0_32_29
*1359 FILLER_0_32_291
*1360 FILLER_0_32_3
*1361 FILLER_0_32_302
*1362 FILLER_0_32_309
*1363 FILLER_0_32_328
*1364 FILLER_0_32_334
*1365 FILLER_0_32_41
*1366 FILLER_0_32_53
*1367 FILLER_0_32_65
*1368 FILLER_0_32_77
*1369 FILLER_0_32_83
*1370 FILLER_0_32_85
*1371 FILLER_0_32_89
*1372 FILLER_0_33_132
*1373 FILLER_0_33_142
*1374 FILLER_0_33_146
*1375 FILLER_0_33_15
*1376 FILLER_0_33_195
*1377 FILLER_0_33_204
*1378 FILLER_0_33_225
*1379 FILLER_0_33_237
*1380 FILLER_0_33_241
*1381 FILLER_0_33_27
*1382 FILLER_0_33_271
*1383 FILLER_0_33_279
*1384 FILLER_0_33_290
*1385 FILLER_0_33_3
*1386 FILLER_0_33_312
*1387 FILLER_0_33_330
*1388 FILLER_0_33_334
*1389 FILLER_0_33_39
*1390 FILLER_0_33_51
*1391 FILLER_0_33_55
*1392 FILLER_0_33_57
*1393 FILLER_0_33_69
*1394 FILLER_0_33_81
*1395 FILLER_0_33_89
*1396 FILLER_0_34_124
*1397 FILLER_0_34_139
*1398 FILLER_0_34_146
*1399 FILLER_0_34_15
*1400 FILLER_0_34_166
*1401 FILLER_0_34_194
*1402 FILLER_0_34_197
*1403 FILLER_0_34_207
*1404 FILLER_0_34_227
*1405 FILLER_0_34_233
*1406 FILLER_0_34_240
*1407 FILLER_0_34_247
*1408 FILLER_0_34_251
*1409 FILLER_0_34_27
*1410 FILLER_0_34_277
*1411 FILLER_0_34_29
*1412 FILLER_0_34_3
*1413 FILLER_0_34_306
*1414 FILLER_0_34_334
*1415 FILLER_0_34_41
*1416 FILLER_0_34_53
*1417 FILLER_0_34_65
*1418 FILLER_0_34_77
*1419 FILLER_0_34_83
*1420 FILLER_0_34_85
*1421 FILLER_0_34_97
*1422 FILLER_0_35_105
*1423 FILLER_0_35_111
*1424 FILLER_0_35_113
*1425 FILLER_0_35_15
*1426 FILLER_0_35_152
*1427 FILLER_0_35_169
*1428 FILLER_0_35_192
*1429 FILLER_0_35_198
*1430 FILLER_0_35_207
*1431 FILLER_0_35_225
*1432 FILLER_0_35_237
*1433 FILLER_0_35_259
*1434 FILLER_0_35_269
*1435 FILLER_0_35_27
*1436 FILLER_0_35_278
*1437 FILLER_0_35_290
*1438 FILLER_0_35_294
*1439 FILLER_0_35_3
*1440 FILLER_0_35_333
*1441 FILLER_0_35_39
*1442 FILLER_0_35_51
*1443 FILLER_0_35_55
*1444 FILLER_0_35_57
*1445 FILLER_0_35_69
*1446 FILLER_0_35_81
*1447 FILLER_0_35_93
*1448 FILLER_0_36_109
*1449 FILLER_0_36_113
*1450 FILLER_0_36_138
*1451 FILLER_0_36_149
*1452 FILLER_0_36_15
*1453 FILLER_0_36_153
*1454 FILLER_0_36_187
*1455 FILLER_0_36_194
*1456 FILLER_0_36_215
*1457 FILLER_0_36_233
*1458 FILLER_0_36_241
*1459 FILLER_0_36_27
*1460 FILLER_0_36_285
*1461 FILLER_0_36_29
*1462 FILLER_0_36_291
*1463 FILLER_0_36_3
*1464 FILLER_0_36_331
*1465 FILLER_0_36_41
*1466 FILLER_0_36_53
*1467 FILLER_0_36_65
*1468 FILLER_0_36_77
*1469 FILLER_0_36_83
*1470 FILLER_0_36_85
*1471 FILLER_0_36_97
*1472 FILLER_0_37_101
*1473 FILLER_0_37_113
*1474 FILLER_0_37_132
*1475 FILLER_0_37_142
*1476 FILLER_0_37_15
*1477 FILLER_0_37_162
*1478 FILLER_0_37_169
*1479 FILLER_0_37_177
*1480 FILLER_0_37_220
*1481 FILLER_0_37_233
*1482 FILLER_0_37_251
*1483 FILLER_0_37_27
*1484 FILLER_0_37_278
*1485 FILLER_0_37_289
*1486 FILLER_0_37_295
*1487 FILLER_0_37_3
*1488 FILLER_0_37_334
*1489 FILLER_0_37_39
*1490 FILLER_0_37_51
*1491 FILLER_0_37_55
*1492 FILLER_0_37_57
*1493 FILLER_0_37_69
*1494 FILLER_0_37_81
*1495 FILLER_0_37_93
*1496 FILLER_0_38_10
*1497 FILLER_0_38_102
*1498 FILLER_0_38_135
*1499 FILLER_0_38_139
*1500 FILLER_0_38_14
*1501 FILLER_0_38_147
*1502 FILLER_0_38_159
*1503 FILLER_0_38_167
*1504 FILLER_0_38_169
*1505 FILLER_0_38_177
*1506 FILLER_0_38_18
*1507 FILLER_0_38_191
*1508 FILLER_0_38_195
*1509 FILLER_0_38_197
*1510 FILLER_0_38_209
*1511 FILLER_0_38_213
*1512 FILLER_0_38_22
*1513 FILLER_0_38_221
*1514 FILLER_0_38_236
*1515 FILLER_0_38_243
*1516 FILLER_0_38_251
*1517 FILLER_0_38_264
*1518 FILLER_0_38_276
*1519 FILLER_0_38_281
*1520 FILLER_0_38_32
*1521 FILLER_0_38_324
*1522 FILLER_0_38_333
*1523 FILLER_0_38_38
*1524 FILLER_0_38_42
*1525 FILLER_0_38_46
*1526 FILLER_0_38_50
*1527 FILLER_0_38_54
*1528 FILLER_0_38_57
*1529 FILLER_0_38_6
*1530 FILLER_0_38_62
*1531 FILLER_0_38_66
*1532 FILLER_0_38_70
*1533 FILLER_0_38_74
*1534 FILLER_0_38_78
*1535 FILLER_0_38_88
*1536 FILLER_0_38_94
*1537 FILLER_0_38_98
*1538 FILLER_0_3_105
*1539 FILLER_0_3_111
*1540 FILLER_0_3_113
*1541 FILLER_0_3_125
*1542 FILLER_0_3_137
*1543 FILLER_0_3_149
*1544 FILLER_0_3_15
*1545 FILLER_0_3_161
*1546 FILLER_0_3_167
*1547 FILLER_0_3_169
*1548 FILLER_0_3_181
*1549 FILLER_0_3_193
*1550 FILLER_0_3_205
*1551 FILLER_0_3_217
*1552 FILLER_0_3_223