*SPEF "ieee 1481-1999"
*DESIGN "tt_um_faramire_stopwatch"
*DATE "01:20:44 Friday April 19, 2024"
*VENDOR "The OpenROAD Project"
*PROGRAM "OpenROAD"
*VERSION "0889970d1790a2617e69f253221b8bd7626e51dc"
*DESIGN_FLOW "NAME_SCOPE LOCAL" "PIN_CAP NONE"
*DIVIDER /
*DELIMITER :
*BUS_DELIMITER []
*T_UNIT 1 NS
*C_UNIT 1 PF
*R_UNIT 1 OHM
*L_UNIT 1 HENRY

*NAME_MAP
*3 clk
*4 ena
*5 rst_n
*6 ui_in[0]
*7 ui_in[1]
*8 ui_in[2]
*9 ui_in[3]
*10 ui_in[4]
*11 ui_in[5]
*12 ui_in[6]
*13 ui_in[7]
*14 uio_in[0]
*15 uio_in[1]
*16 uio_in[2]
*17 uio_in[3]
*18 uio_in[4]
*19 uio_in[5]
*20 uio_in[6]
*21 uio_in[7]
*22 net15
*23 net16
*24 net17
*25 net18
*26 net19
*27 net20
*28 net21
*29 net22
*30 net23
*31 net24
*32 net25
*33 net26
*34 net27
*35 net28
*36 net29
*37 net30
*38 uo_out[0]
*39 uo_out[1]
*40 uo_out[2]
*41 uo_out[3]
*42 uo_out[4]
*43 net31
*44 net32
*45 net33
*46 SPI_wrapper1\.Clk_SPI
*47 SPI_wrapper1\.Cs
*48 SPI_wrapper1\.Mosi
*49 SPI_wrapper1\.SPI_Master1\.count_bit\[0\]
*50 SPI_wrapper1\.SPI_Master1\.count_bit\[1\]
*51 SPI_wrapper1\.SPI_Master1\.count_bit\[2\]
*52 SPI_wrapper1\.SPI_Master1\.count_bit\[3\]
*53 SPI_wrapper1\.SPI_Master1\.count_word\[0\]
*54 SPI_wrapper1\.SPI_Master1\.count_word\[1\]
*55 SPI_wrapper1\.SPI_Master1\.count_word\[2\]
*56 SPI_wrapper1\.SPI_Master1\.count_word\[3\]
*57 SPI_wrapper1\.SPI_Master1\.report_ready
*58 SPI_wrapper1\.SPI_Master1\.report_send
*59 SPI_wrapper1\.SPI_Master1\.res
*60 SPI_wrapper1\.SPI_Master1\.state\[0\]
*61 SPI_wrapper1\.SPI_Master1\.state\[1\]
*62 SPI_wrapper1\.SPI_Master1\.state\[2\]
*63 SPI_wrapper1\.SPI_Master1\.word_in\[0\]
*64 SPI_wrapper1\.SPI_Master1\.word_in\[10\]
*65 SPI_wrapper1\.SPI_Master1\.word_in\[11\]
*66 SPI_wrapper1\.SPI_Master1\.word_in\[12\]
*67 SPI_wrapper1\.SPI_Master1\.word_in\[13\]
*68 SPI_wrapper1\.SPI_Master1\.word_in\[14\]
*69 SPI_wrapper1\.SPI_Master1\.word_in\[15\]
*70 SPI_wrapper1\.SPI_Master1\.word_in\[1\]
*71 SPI_wrapper1\.SPI_Master1\.word_in\[2\]
*72 SPI_wrapper1\.SPI_Master1\.word_in\[3\]
*73 SPI_wrapper1\.SPI_Master1\.word_in\[4\]
*74 SPI_wrapper1\.SPI_Master1\.word_in\[5\]
*75 SPI_wrapper1\.SPI_Master1\.word_in\[6\]
*76 SPI_wrapper1\.SPI_Master1\.word_in\[7\]
*77 SPI_wrapper1\.SPI_Master1\.word_in\[8\]
*78 SPI_wrapper1\.SPI_Master1\.word_in\[9\]
*79 SPI_wrapper1\.SPI_Master1\.word_out\[0\]
*80 SPI_wrapper1\.SPI_Master1\.word_out\[10\]
*81 SPI_wrapper1\.SPI_Master1\.word_out\[11\]
*82 SPI_wrapper1\.SPI_Master1\.word_out\[12\]
*83 SPI_wrapper1\.SPI_Master1\.word_out\[13\]
*84 SPI_wrapper1\.SPI_Master1\.word_out\[14\]
*85 SPI_wrapper1\.SPI_Master1\.word_out\[15\]
*86 SPI_wrapper1\.SPI_Master1\.word_out\[1\]
*87 SPI_wrapper1\.SPI_Master1\.word_out\[2\]
*88 SPI_wrapper1\.SPI_Master1\.word_out\[3\]
*89 SPI_wrapper1\.SPI_Master1\.word_out\[4\]
*90 SPI_wrapper1\.SPI_Master1\.word_out\[5\]
*91 SPI_wrapper1\.SPI_Master1\.word_out\[6\]
*92 SPI_wrapper1\.SPI_Master1\.word_out\[7\]
*93 SPI_wrapper1\.SPI_Master1\.word_out\[8\]
*94 SPI_wrapper1\.SPI_Master1\.word_out\[9\]
*95 SPI_wrapper1\.ces_0X\[0\]
*96 SPI_wrapper1\.ces_0X\[1\]
*97 SPI_wrapper1\.ces_0X\[2\]
*98 SPI_wrapper1\.ces_0X\[3\]
*99 SPI_wrapper1\.ces_X0\[0\]
*100 SPI_wrapper1\.ces_X0\[1\]
*101 SPI_wrapper1\.ces_X0\[2\]
*102 SPI_wrapper1\.ces_X0\[3\]
*103 SPI_wrapper1\.clk_div
*104 SPI_wrapper1\.digit_count\[0\]
*105 SPI_wrapper1\.digit_count\[1\]
*106 SPI_wrapper1\.digit_count\[2\]
*107 SPI_wrapper1\.digit_count\[3\]
*108 SPI_wrapper1\.digit_count\[4\]
*109 SPI_wrapper1\.digit_count\[5\]
*110 SPI_wrapper1\.digit_count\[6\]
*111 SPI_wrapper1\.ena
*112 SPI_wrapper1\.min_0X\[0\]
*113 SPI_wrapper1\.min_0X\[1\]
*114 SPI_wrapper1\.min_0X\[2\]
*115 SPI_wrapper1\.min_0X\[3\]
*116 SPI_wrapper1\.min_X0\[0\]
*117 SPI_wrapper1\.min_X0\[1\]
*118 SPI_wrapper1\.min_X0\[2\]
*119 SPI_wrapper1\.sec_0X\[0\]
*120 SPI_wrapper1\.sec_0X\[1\]
*121 SPI_wrapper1\.sec_0X\[2\]
*122 SPI_wrapper1\.sec_0X\[3\]
*123 SPI_wrapper1\.sec_X0\[0\]
*124 SPI_wrapper1\.sec_X0\[1\]
*125 SPI_wrapper1\.sec_X0\[2\]
*126 SPI_wrapper1\.sent_BCD
*127 SPI_wrapper1\.sent_ON
*128 SPI_wrapper1\.state\[0\]
*129 SPI_wrapper1\.state\[1\]
*130 SPI_wrapper1\.state\[2\]
*131 _000_
*132 _001_
*133 _002_
*134 _003_
*135 _004_
*136 _005_
*137 _006_
*138 _007_
*139 _008_
*140 _009_
*141 _010_
*142 _011_
*143 _012_
*144 _013_
*145 _014_
*146 _015_
*147 _016_
*148 _017_
*149 _018_
*150 _019_
*151 _020_
*152 _021_
*153 _022_
*154 _023_
*155 _024_
*156 _025_
*157 _026_
*158 _027_
*159 _028_
*160 _029_
*161 _030_
*162 _031_
*163 _032_
*164 _033_
*165 _034_
*166 _035_
*167 _036_
*168 _037_
*169 _038_
*170 _039_
*171 _040_
*172 _041_
*173 _042_
*174 _043_
*175 _044_
*176 _045_
*177 _046_
*178 _047_
*179 _048_
*180 _049_
*181 _050_
*182 _051_
*183 _052_
*184 _053_
*185 _054_
*186 _055_
*187 _056_
*188 _057_
*189 _058_
*190 _059_
*191 _060_
*192 _061_
*193 _062_
*194 _063_
*195 _064_
*196 _065_
*197 _066_
*198 _067_
*199 _068_
*200 _069_
*201 _070_
*202 _071_
*203 _072_
*204 _073_
*205 _074_
*206 _075_
*207 _076_
*208 _077_
*209 _078_
*210 _079_
*211 _080_
*212 _081_
*213 _082_
*214 _083_
*215 _084_
*216 _085_
*217 _086_
*218 _087_
*219 _088_
*220 _089_
*221 _090_
*222 _091_
*223 _092_
*224 _093_
*225 _094_
*226 _095_
*227 _096_
*228 _097_
*229 _098_
*230 _099_
*231 _100_
*232 _101_
*233 _102_
*234 _103_
*235 _104_
*236 _105_
*237 _106_
*238 _107_
*239 _108_
*240 _109_
*241 _110_
*242 _111_
*243 _112_
*244 _113_
*245 _114_
*246 _115_
*247 _116_
*248 _117_
*249 _118_
*250 _119_
*251 _120_
*252 _121_
*253 _122_
*254 _123_
*255 _124_
*256 _125_
*257 _126_
*258 _127_
*259 _128_
*260 _129_
*261 _130_
*262 _131_
*263 _132_
*264 _133_
*265 _134_
*266 _135_
*267 _136_
*268 _137_
*269 _138_
*270 _139_
*271 _140_
*272 _141_
*273 _142_
*274 _143_
*275 _144_
*276 _145_
*277 _146_
*278 _147_
*279 _148_
*280 _149_
*281 _150_
*282 _151_
*283 _152_
*284 _153_
*285 _154_
*286 _155_
*287 _156_
*288 _157_
*289 _158_
*290 _159_
*291 _160_
*292 _161_
*293 _162_
*294 _163_
*295 _164_
*296 _165_
*297 _166_
*298 _167_
*299 _168_
*300 _169_
*301 _170_
*302 _171_
*303 _172_
*304 _173_
*305 _174_
*306 _175_
*307 _176_
*308 _177_
*309 _178_
*310 _179_
*311 _180_
*312 _181_
*313 _182_
*314 _183_
*315 _184_
*316 _185_
*317 _186_
*318 _187_
*319 _188_
*320 _189_
*321 _190_
*322 _191_
*323 _192_
*324 _193_
*325 _194_
*326 _195_
*327 _196_
*328 _197_
*329 _198_
*330 _199_
*331 _200_
*332 _201_
*333 _202_
*334 _203_
*335 _204_
*336 _205_
*337 _206_
*338 _207_
*339 _208_
*340 _209_
*341 _210_
*342 _211_
*343 _212_
*344 _213_
*345 _214_
*346 _215_
*347 _216_
*348 _217_
*349 _218_
*350 _219_
*351 _220_
*352 _221_
*353 _222_
*354 _223_
*355 _224_
*356 _225_
*357 _226_
*358 _227_
*359 _228_
*360 _229_
*361 _230_
*362 _231_
*363 _232_
*364 _233_
*365 _234_
*366 _235_
*367 _236_
*368 _237_
*369 _238_
*370 _239_
*371 _240_
*372 _241_
*373 _242_
*374 _243_
*375 _244_
*376 _245_
*377 _246_
*378 _247_
*379 _248_
*380 _249_
*381 _250_
*382 _251_
*383 _252_
*384 _253_
*385 _254_
*386 _255_
*387 _256_
*388 _257_
*389 _258_
*390 _259_
*391 _260_
*392 _261_
*393 _262_
*394 _263_
*395 _264_
*396 _265_
*397 _266_
*398 _267_
*399 _268_
*400 _269_
*401 _270_
*402 _271_
*403 _272_
*404 _273_
*405 _274_
*406 _275_
*407 _276_
*408 _277_
*409 _278_
*410 _279_
*411 _280_
*412 _281_
*413 _282_
*414 _283_
*415 _284_
*416 _285_
*417 _286_
*418 _287_
*419 _288_
*420 _289_
*421 _290_
*422 _291_
*423 _292_
*424 _293_
*425 _294_
*426 _295_
*427 _296_
*428 _297_
*429 _298_
*430 _299_
*431 _300_
*432 _301_
*433 _302_
*434 _303_
*435 _304_
*436 _305_
*437 _306_
*438 _307_
*439 _308_
*440 _309_
*441 _310_
*442 _311_
*443 _312_
*444 _313_
*445 _314_
*446 _315_
*447 _316_
*448 _317_
*449 _318_
*450 _319_
*451 _320_
*452 _321_
*453 _322_
*454 _323_
*455 _324_
*456 _325_
*457 _326_
*458 _327_
*459 _328_
*460 _329_
*461 _330_
*462 _331_
*463 _332_
*464 _333_
*465 _334_
*466 _335_
*467 _336_
*468 _337_
*469 _338_
*470 _339_
*471 _340_
*472 _341_
*473 _342_
*474 _343_
*475 _344_
*476 _345_
*477 _346_
*478 _347_
*479 _348_
*480 _349_
*481 _350_
*482 _351_
*483 _352_
*484 _353_
*485 _354_
*486 _355_
*487 _356_
*488 _357_
*489 clknet_0_clk
*490 clknet_3_0__leaf_clk
*491 clknet_3_1__leaf_clk
*492 clknet_3_2__leaf_clk
*493 clknet_3_3__leaf_clk
*494 clknet_3_4__leaf_clk
*495 clknet_3_5__leaf_clk
*496 clknet_3_6__leaf_clk
*497 clknet_3_7__leaf_clk
*498 clockDivider1\.counter\[0\]
*499 clockDivider1\.counter\[10\]
*500 clockDivider1\.counter\[11\]
*501 clockDivider1\.counter\[12\]
*502 clockDivider1\.counter\[13\]
*503 clockDivider1\.counter\[1\]
*504 clockDivider1\.counter\[2\]
*505 clockDivider1\.counter\[3\]
*506 clockDivider1\.counter\[4\]
*507 clockDivider1\.counter\[5\]
*508 clockDivider1\.counter\[6\]
*509 clockDivider1\.counter\[7\]
*510 clockDivider1\.counter\[8\]
*511 clockDivider1\.counter\[9\]
*512 clockDivider1\.ena
*513 clockDivider1\.res
*514 counter_chain1\.ces_X0_ena
*515 counter_chain1\.inst_ces_X0\.max
*516 counter_chain1\.inst_min_0X\.max
*517 counter_chain1\.inst_sec_0X\.max
*518 counter_chain1\.inst_sec_X0\.max
*519 net1
*520 net10
*521 net11
*522 net12
*523 net13
*524 net14
*525 net2
*526 net3
*527 net34
*528 net35
*529 net36
*530 net37
*531 net38
*532 net39
*533 net4
*534 net40
*535 net41
*536 net42
*537 net43
*538 net44
*539 net45
*540 net46
*541 net47
*542 net48
*543 net49
*544 net5
*545 net50
*546 net51
*547 net52
*548 net53
*549 net54
*550 net55
*551 net56
*552 net57
*553 net58
*554 net59
*555 net6
*556 net60
*557 net61
*558 net62
*559 net63
*560 net64
*561 net65
*562 net66
*563 net67
*564 net68
*565 net69
*566 net7
*567 net70
*568 net71
*569 net72
*570 net73
*571 net74
*572 net75
*573 net76
*574 net77
*575 net78
*576 net79
*577 net8
*578 net80
*579 net81
*580 net82
*581 net83
*582 net84
*583 net85
*584 net86
*585 net87
*586 net88
*587 net89
*588 net9
*589 net90
*590 net91
*591 net92
*592 net93
*593 net94
*594 net95
*595 net96
*596 net97
*597 FILLER_0_0_109
*598 FILLER_0_0_113
*599 FILLER_0_0_125
*600 FILLER_0_0_137
*601 FILLER_0_0_141
*602 FILLER_0_0_15
*603 FILLER_0_0_153
*604 FILLER_0_0_165
*605 FILLER_0_0_169
*606 FILLER_0_0_181
*607 FILLER_0_0_193
*608 FILLER_0_0_197
*609 FILLER_0_0_209
*610 FILLER_0_0_221
*611 FILLER_0_0_225
*612 FILLER_0_0_237
*613 FILLER_0_0_249
*614 FILLER_0_0_253
*615 FILLER_0_0_265
*616 FILLER_0_0_27
*617 FILLER_0_0_277
*618 FILLER_0_0_281
*619 FILLER_0_0_29
*620 FILLER_0_0_293
*621 FILLER_0_0_3
*622 FILLER_0_0_305
*623 FILLER_0_0_309
*624 FILLER_0_0_321
*625 FILLER_0_0_333
*626 FILLER_0_0_41
*627 FILLER_0_0_53
*628 FILLER_0_0_57
*629 FILLER_0_0_69
*630 FILLER_0_0_81
*631 FILLER_0_0_85
*632 FILLER_0_0_97
*633 FILLER_0_10_109
*634 FILLER_0_10_121
*635 FILLER_0_10_133
*636 FILLER_0_10_139
*637 FILLER_0_10_141
*638 FILLER_0_10_15
*639 FILLER_0_10_153
*640 FILLER_0_10_165
*641 FILLER_0_10_177
*642 FILLER_0_10_189
*643 FILLER_0_10_195
*644 FILLER_0_10_197
*645 FILLER_0_10_209
*646 FILLER_0_10_221
*647 FILLER_0_10_233
*648 FILLER_0_10_245
*649 FILLER_0_10_251
*650 FILLER_0_10_253
*651 FILLER_0_10_265
*652 FILLER_0_10_27
*653 FILLER_0_10_277
*654 FILLER_0_10_289
*655 FILLER_0_10_29
*656 FILLER_0_10_3
*657 FILLER_0_10_301
*658 FILLER_0_10_307
*659 FILLER_0_10_309
*660 FILLER_0_10_321
*661 FILLER_0_10_333
*662 FILLER_0_10_41
*663 FILLER_0_10_53
*664 FILLER_0_10_65
*665 FILLER_0_10_77
*666 FILLER_0_10_83
*667 FILLER_0_10_85
*668 FILLER_0_10_97
*669 FILLER_0_11_105
*670 FILLER_0_11_111
*671 FILLER_0_11_113
*672 FILLER_0_11_125
*673 FILLER_0_11_137
*674 FILLER_0_11_149
*675 FILLER_0_11_15
*676 FILLER_0_11_161
*677 FILLER_0_11_167
*678 FILLER_0_11_169
*679 FILLER_0_11_181
*680 FILLER_0_11_193
*681 FILLER_0_11_205
*682 FILLER_0_11_217
*683 FILLER_0_11_223
*684 FILLER_0_11_225
*685 FILLER_0_11_237
*686 FILLER_0_11_249
*687 FILLER_0_11_261
*688 FILLER_0_11_27
*689 FILLER_0_11_273
*690 FILLER_0_11_279
*691 FILLER_0_11_281
*692 FILLER_0_11_293
*693 FILLER_0_11_3
*694 FILLER_0_11_305
*695 FILLER_0_11_317
*696 FILLER_0_11_329
*697 FILLER_0_11_39
*698 FILLER_0_11_51
*699 FILLER_0_11_55
*700 FILLER_0_11_57
*701 FILLER_0_11_69
*702 FILLER_0_11_81
*703 FILLER_0_11_93
*704 FILLER_0_12_109
*705 FILLER_0_12_121
*706 FILLER_0_12_133
*707 FILLER_0_12_139
*708 FILLER_0_12_141
*709 FILLER_0_12_15
*710 FILLER_0_12_153
*711 FILLER_0_12_165
*712 FILLER_0_12_177
*713 FILLER_0_12_189
*714 FILLER_0_12_195
*715 FILLER_0_12_197
*716 FILLER_0_12_209
*717 FILLER_0_12_221
*718 FILLER_0_12_233
*719 FILLER_0_12_245
*720 FILLER_0_12_251
*721 FILLER_0_12_253
*722 FILLER_0_12_265
*723 FILLER_0_12_27
*724 FILLER_0_12_277
*725 FILLER_0_12_289
*726 FILLER_0_12_29
*727 FILLER_0_12_3
*728 FILLER_0_12_301
*729 FILLER_0_12_307
*730 FILLER_0_12_309
*731 FILLER_0_12_321
*732 FILLER_0_12_333
*733 FILLER_0_12_41
*734 FILLER_0_12_53
*735 FILLER_0_12_65
*736 FILLER_0_12_77
*737 FILLER_0_12_83
*738 FILLER_0_12_85
*739 FILLER_0_12_97
*740 FILLER_0_13_105
*741 FILLER_0_13_111
*742 FILLER_0_13_113
*743 FILLER_0_13_125
*744 FILLER_0_13_137
*745 FILLER_0_13_149
*746 FILLER_0_13_15
*747 FILLER_0_13_161
*748 FILLER_0_13_167
*749 FILLER_0_13_169
*750 FILLER_0_13_181
*751 FILLER_0_13_193
*752 FILLER_0_13_205
*753 FILLER_0_13_217
*754 FILLER_0_13_223
*755 FILLER_0_13_225
*756 FILLER_0_13_237
*757 FILLER_0_13_249
*758 FILLER_0_13_261
*759 FILLER_0_13_27
*760 FILLER_0_13_273
*761 FILLER_0_13_279
*762 FILLER_0_13_281
*763 FILLER_0_13_293
*764 FILLER_0_13_3
*765 FILLER_0_13_305
*766 FILLER_0_13_317
*767 FILLER_0_13_329
*768 FILLER_0_13_39
*769 FILLER_0_13_51
*770 FILLER_0_13_55
*771 FILLER_0_13_57
*772 FILLER_0_13_69
*773 FILLER_0_13_81
*774 FILLER_0_13_93
*775 FILLER_0_14_109
*776 FILLER_0_14_121
*777 FILLER_0_14_133
*778 FILLER_0_14_139
*779 FILLER_0_14_141
*780 FILLER_0_14_15
*781 FILLER_0_14_153
*782 FILLER_0_14_165
*783 FILLER_0_14_177
*784 FILLER_0_14_189
*785 FILLER_0_14_195
*786 FILLER_0_14_217
*787 FILLER_0_14_229
*788 FILLER_0_14_253
*789 FILLER_0_14_265
*790 FILLER_0_14_27
*791 FILLER_0_14_277
*792 FILLER_0_14_287
*793 FILLER_0_14_29
*794 FILLER_0_14_299
*795 FILLER_0_14_3
*796 FILLER_0_14_307
*797 FILLER_0_14_309
*798 FILLER_0_14_321
*799 FILLER_0_14_333
*800 FILLER_0_14_41
*801 FILLER_0_14_53
*802 FILLER_0_14_65
*803 FILLER_0_14_77
*804 FILLER_0_14_83
*805 FILLER_0_14_85
*806 FILLER_0_14_97
*807 FILLER_0_15_105
*808 FILLER_0_15_111
*809 FILLER_0_15_113
*810 FILLER_0_15_125
*811 FILLER_0_15_137
*812 FILLER_0_15_149
*813 FILLER_0_15_15
*814 FILLER_0_15_161
*815 FILLER_0_15_167
*816 FILLER_0_15_169
*817 FILLER_0_15_181
*818 FILLER_0_15_216
*819 FILLER_0_15_225
*820 FILLER_0_15_259
*821 FILLER_0_15_27
*822 FILLER_0_15_271
*823 FILLER_0_15_276
*824 FILLER_0_15_3
*825 FILLER_0_15_302
*826 FILLER_0_15_314
*827 FILLER_0_15_326
*828 FILLER_0_15_334
*829 FILLER_0_15_39
*830 FILLER_0_15_51
*831 FILLER_0_15_55
*832 FILLER_0_15_57
*833 FILLER_0_15_69
*834 FILLER_0_15_81
*835 FILLER_0_15_93
*836 FILLER_0_16_109
*837 FILLER_0_16_121
*838 FILLER_0_16_133
*839 FILLER_0_16_139
*840 FILLER_0_16_141
*841 FILLER_0_16_15
*842 FILLER_0_16_153
*843 FILLER_0_16_165
*844 FILLER_0_16_177
*845 FILLER_0_16_189
*846 FILLER_0_16_195
*847 FILLER_0_16_197
*848 FILLER_0_16_201
*849 FILLER_0_16_221
*850 FILLER_0_16_232
*851 FILLER_0_16_253
*852 FILLER_0_16_265
*853 FILLER_0_16_27
*854 FILLER_0_16_29
*855 FILLER_0_16_3
*856 FILLER_0_16_307
*857 FILLER_0_16_329
*858 FILLER_0_16_41
*859 FILLER_0_16_53
*860 FILLER_0_16_57
*861 FILLER_0_16_66
*862 FILLER_0_16_78
*863 FILLER_0_16_85
*864 FILLER_0_16_97
*865 FILLER_0_17_106
*866 FILLER_0_17_113
*867 FILLER_0_17_117
*868 FILLER_0_17_143
*869 FILLER_0_17_15
*870 FILLER_0_17_151
*871 FILLER_0_17_169
*872 FILLER_0_17_181
*873 FILLER_0_17_220
*874 FILLER_0_17_225
*875 FILLER_0_17_237
*876 FILLER_0_17_257
*877 FILLER_0_17_269
*878 FILLER_0_17_27
*879 FILLER_0_17_277
*880 FILLER_0_17_3
*881 FILLER_0_17_327
*882 FILLER_0_17_39
*883 FILLER_0_17_51
*884 FILLER_0_17_55
*885 FILLER_0_17_74
*886 FILLER_0_17_94
*887 FILLER_0_18_113
*888 FILLER_0_18_137
*889 FILLER_0_18_15
*890 FILLER_0_18_150
*891 FILLER_0_18_174
*892 FILLER_0_18_186
*893 FILLER_0_18_222
*894 FILLER_0_18_234
*895 FILLER_0_18_27
*896 FILLER_0_18_273
*897 FILLER_0_18_281
*898 FILLER_0_18_289
*899 FILLER_0_18_29
*900 FILLER_0_18_297
*901 FILLER_0_18_3
*902 FILLER_0_18_309
*903 FILLER_0_18_330
*904 FILLER_0_18_334
*905 FILLER_0_18_37
*906 FILLER_0_18_83
*907 FILLER_0_19_113
*908 FILLER_0_19_137
*909 FILLER_0_19_148
*910 FILLER_0_19_15
*911 FILLER_0_19_167
*912 FILLER_0_19_183
*913 FILLER_0_19_195
*914 FILLER_0_19_217
*915 FILLER_0_19_223
*916 FILLER_0_19_225
*917 FILLER_0_19_233
*918 FILLER_0_19_258
*919 FILLER_0_19_27
*920 FILLER_0_19_270
*921 FILLER_0_19_278
*922 FILLER_0_19_281
*923 FILLER_0_19_293
*924 FILLER_0_19_3
*925 FILLER_0_19_314
*926 FILLER_0_19_326
*927 FILLER_0_19_334
*928 FILLER_0_19_35
*929 FILLER_0_19_66
*930 FILLER_0_1_105
*931 FILLER_0_1_111
*932 FILLER_0_1_113
*933 FILLER_0_1_125
*934 FILLER_0_1_137
*935 FILLER_0_1_149
*936 FILLER_0_1_15
*937 FILLER_0_1_161
*938 FILLER_0_1_167
*939 FILLER_0_1_169
*940 FILLER_0_1_181
*941 FILLER_0_1_193
*942 FILLER_0_1_205
*943 FILLER_0_1_217
*944 FILLER_0_1_223
*945 FILLER_0_1_225
*946 FILLER_0_1_237
*947 FILLER_0_1_249
*948 FILLER_0_1_261
*949 FILLER_0_1_27
*950 FILLER_0_1_273
*951 FILLER_0_1_279
*952 FILLER_0_1_281
*953 FILLER_0_1_293
*954 FILLER_0_1_3
*955 FILLER_0_1_305
*956 FILLER_0_1_317
*957 FILLER_0_1_329
*958 FILLER_0_1_39
*959 FILLER_0_1_51
*960 FILLER_0_1_55
*961 FILLER_0_1_57
*962 FILLER_0_1_69
*963 FILLER_0_1_81
*964 FILLER_0_1_93
*965 FILLER_0_20_103
*966 FILLER_0_20_135
*967 FILLER_0_20_139
*968 FILLER_0_20_141
*969 FILLER_0_20_15
*970 FILLER_0_20_181
*971 FILLER_0_20_193
*972 FILLER_0_20_197
*973 FILLER_0_20_216
*974 FILLER_0_20_228
*975 FILLER_0_20_240
*976 FILLER_0_20_253
*977 FILLER_0_20_265
*978 FILLER_0_20_27
*979 FILLER_0_20_29
*980 FILLER_0_20_291
*981 FILLER_0_20_3
*982 FILLER_0_20_300
*983 FILLER_0_20_309
*984 FILLER_0_20_318
*985 FILLER_0_20_330
*986 FILLER_0_20_334
*987 FILLER_0_20_41
*988 FILLER_0_20_63
*989 FILLER_0_20_76
*990 FILLER_0_20_85
*991 FILLER_0_21_101
*992 FILLER_0_21_111
*993 FILLER_0_21_113
*994 FILLER_0_21_139
*995 FILLER_0_21_15
*996 FILLER_0_21_151
*997 FILLER_0_21_175
*998 FILLER_0_21_188
*999 FILLER_0_21_194
*1000 FILLER_0_21_219
*1001 FILLER_0_21_223
*1002 FILLER_0_21_225
*1003 FILLER_0_21_251
*1004 FILLER_0_21_263
*1005 FILLER_0_21_27
*1006 FILLER_0_21_276
*1007 FILLER_0_21_281
*1008 FILLER_0_21_3
*1009 FILLER_0_21_302
*1010 FILLER_0_21_332
*1011 FILLER_0_21_39
*1012 FILLER_0_21_51
*1013 FILLER_0_21_55
*1014 FILLER_0_21_57
*1015 FILLER_0_21_63
*1016 FILLER_0_21_87
*1017 FILLER_0_21_91
*1018 FILLER_0_22_112
*1019 FILLER_0_22_116
*1020 FILLER_0_22_133
*1021 FILLER_0_22_139
*1022 FILLER_0_22_149
*1023 FILLER_0_22_15
*1024 FILLER_0_22_172
*1025 FILLER_0_22_184
*1026 FILLER_0_22_188
*1027 FILLER_0_22_204
*1028 FILLER_0_22_251
*1029 FILLER_0_22_260
*1030 FILLER_0_22_27
*1031 FILLER_0_22_29
*1032 FILLER_0_22_3
*1033 FILLER_0_22_300
*1034 FILLER_0_22_330
*1035 FILLER_0_22_334
*1036 FILLER_0_22_41
*1037 FILLER_0_22_53
*1038 FILLER_0_22_59
*1039 FILLER_0_23_102
*1040 FILLER_0_23_110
*1041 FILLER_0_23_113
*1042 FILLER_0_23_117
*1043 FILLER_0_23_147
*1044 FILLER_0_23_15
*1045 FILLER_0_23_151
*1046 FILLER_0_23_178
*1047 FILLER_0_23_218
*1048 FILLER_0_23_233
*1049 FILLER_0_23_237
*1050 FILLER_0_23_253
*1051 FILLER_0_23_265
*1052 FILLER_0_23_27
*1053 FILLER_0_23_275
*1054 FILLER_0_23_279
*1055 FILLER_0_23_287
*1056 FILLER_0_23_299
*1057 FILLER_0_23_3
*1058 FILLER_0_23_307
*1059 FILLER_0_23_314
*1060 FILLER_0_23_326
*1061 FILLER_0_23_334
*1062 FILLER_0_23_35
*1063 FILLER_0_23_53
*1064 FILLER_0_23_57
*1065 FILLER_0_24_109
*1066 FILLER_0_24_141
*1067 FILLER_0_24_145
*1068 FILLER_0_24_15
*1069 FILLER_0_24_175
*1070 FILLER_0_24_194
*1071 FILLER_0_24_197
*1072 FILLER_0_24_219
*1073 FILLER_0_24_23
*1074 FILLER_0_24_260
*1075 FILLER_0_24_268
*1076 FILLER_0_24_277
*1077 FILLER_0_24_289
*1078 FILLER_0_24_297
*1079 FILLER_0_24_3
*1080 FILLER_0_24_305
*1081 FILLER_0_24_330
*1082 FILLER_0_24_334
*1083 FILLER_0_24_54
*1084 FILLER_0_24_97
*1085 FILLER_0_25_102
*1086 FILLER_0_25_110
*1087 FILLER_0_25_129
*1088 FILLER_0_25_15
*1089 FILLER_0_25_167
*1090 FILLER_0_25_176
*1091 FILLER_0_25_184
*1092 FILLER_0_25_225
*1093 FILLER_0_25_237
*1094 FILLER_0_25_261
*1095 FILLER_0_25_273
*1096 FILLER_0_25_279
*1097 FILLER_0_25_281
*1098 FILLER_0_25_287
*1099 FILLER_0_25_294
*1100 FILLER_0_25_3
*1101 FILLER_0_25_302
*1102 FILLER_0_25_324
*1103 FILLER_0_25_332
*1104 FILLER_0_25_55
*1105 FILLER_0_25_65
*1106 FILLER_0_25_91
*1107 FILLER_0_26_101
*1108 FILLER_0_26_137
*1109 FILLER_0_26_141
*1110 FILLER_0_26_15
*1111 FILLER_0_26_152
*1112 FILLER_0_26_156
*1113 FILLER_0_26_186
*1114 FILLER_0_26_194
*1115 FILLER_0_26_221
*1116 FILLER_0_26_233
*1117 FILLER_0_26_251
*1118 FILLER_0_26_262
*1119 FILLER_0_26_27
*1120 FILLER_0_26_29
*1121 FILLER_0_26_3
*1122 FILLER_0_26_307
*1123 FILLER_0_26_321
*1124 FILLER_0_26_333
*1125 FILLER_0_26_62
*1126 FILLER_0_27_109
*1127 FILLER_0_27_15
*1128 FILLER_0_27_166
*1129 FILLER_0_27_175
*1130 FILLER_0_27_183
*1131 FILLER_0_27_217
*1132 FILLER_0_27_223
*1133 FILLER_0_27_225
*1134 FILLER_0_27_261
*1135 FILLER_0_27_267
*1136 FILLER_0_27_27
*1137 FILLER_0_27_271
*1138 FILLER_0_27_279
*1139 FILLER_0_27_290
*1140 FILLER_0_27_3
*1141 FILLER_0_27_301
*1142 FILLER_0_27_305
*1143 FILLER_0_27_321
*1144 FILLER_0_27_333
*1145 FILLER_0_27_35
*1146 FILLER_0_27_54
*1147 FILLER_0_27_70
*1148 FILLER_0_27_78
*1149 FILLER_0_27_97
*1150 FILLER_0_28_135
*1151 FILLER_0_28_149
*1152 FILLER_0_28_15
*1153 FILLER_0_28_157
*1154 FILLER_0_28_164
*1155 FILLER_0_28_170
*1156 FILLER_0_28_194
*1157 FILLER_0_28_197
*1158 FILLER_0_28_207
*1159 FILLER_0_28_219
*1160 FILLER_0_28_225
*1161 FILLER_0_28_251
*1162 FILLER_0_28_253
*1163 FILLER_0_28_265
*1164 FILLER_0_28_27
*1165 FILLER_0_28_29
*1166 FILLER_0_28_294
*1167 FILLER_0_28_3
*1168 FILLER_0_28_303
*1169 FILLER_0_28_332
*1170 FILLER_0_28_49
*1171 FILLER_0_28_70
*1172 FILLER_0_28_82
*1173 FILLER_0_29_106
*1174 FILLER_0_29_126
*1175 FILLER_0_29_141
*1176 FILLER_0_29_15
*1177 FILLER_0_29_157
*1178 FILLER_0_29_165
*1179 FILLER_0_29_169
*1180 FILLER_0_29_195
*1181 FILLER_0_29_213
*1182 FILLER_0_29_221
*1183 FILLER_0_29_225
*1184 FILLER_0_29_233
*1185 FILLER_0_29_248
*1186 FILLER_0_29_260
*1187 FILLER_0_29_268
*1188 FILLER_0_29_27
*1189 FILLER_0_29_278
*1190 FILLER_0_29_281
*1191 FILLER_0_29_286
*1192 FILLER_0_29_298
*1193 FILLER_0_29_3
*1194 FILLER_0_29_326
*1195 FILLER_0_29_334
*1196 FILLER_0_29_35
*1197 FILLER_0_2_109
*1198 FILLER_0_2_121
*1199 FILLER_0_2_133
*1200 FILLER_0_2_139
*1201 FILLER_0_2_141
*1202 FILLER_0_2_15
*1203 FILLER_0_2_153
*1204 FILLER_0_2_165
*1205 FILLER_0_2_177
*1206 FILLER_0_2_189
*1207 FILLER_0_2_195
*1208 FILLER_0_2_197
*1209 FILLER_0_2_209
*1210 FILLER_0_2_221
*1211 FILLER_0_2_233
*1212 FILLER_0_2_245
*1213 FILLER_0_2_251
*1214 FILLER_0_2_253
*1215 FILLER_0_2_265
*1216 FILLER_0_2_27
*1217 FILLER_0_2_277
*1218 FILLER_0_2_289
*1219 FILLER_0_2_29
*1220 FILLER_0_2_3
*1221 FILLER_0_2_301
*1222 FILLER_0_2_307
*1223 FILLER_0_2_309
*1224 FILLER_0_2_321
*1225 FILLER_0_2_333
*1226 FILLER_0_2_41
*1227 FILLER_0_2_53
*1228 FILLER_0_2_65
*1229 FILLER_0_2_77
*1230 FILLER_0_2_83
*1231 FILLER_0_2_85
*1232 FILLER_0_2_97
*1233 FILLER_0_30_109
*1234 FILLER_0_30_126
*1235 FILLER_0_30_136
*1236 FILLER_0_30_146
*1237 FILLER_0_30_161
*1238 FILLER_0_30_169
*1239 FILLER_0_30_173
*1240 FILLER_0_30_183
*1241 FILLER_0_30_191
*1242 FILLER_0_30_195
*1243 FILLER_0_30_197
*1244 FILLER_0_30_203
*1245 FILLER_0_30_210
*1246 FILLER_0_30_253
*1247 FILLER_0_30_26
*1248 FILLER_0_30_265
*1249 FILLER_0_30_277
*1250 FILLER_0_30_282
*1251 FILLER_0_30_294
*1252 FILLER_0_30_3
*1253 FILLER_0_30_306
*1254 FILLER_0_30_309
*1255 FILLER_0_30_313
*1256 FILLER_0_30_325
*1257 FILLER_0_30_33
*1258 FILLER_0_30_333
*1259 FILLER_0_30_53
*1260 FILLER_0_31_105
*1261 FILLER_0_31_11
*1262 FILLER_0_31_111
*1263 FILLER_0_31_113
*1264 FILLER_0_31_125
*1265 FILLER_0_31_132
*1266 FILLER_0_31_163
*1267 FILLER_0_31_167
*1268 FILLER_0_31_175
*1269 FILLER_0_31_201
*1270 FILLER_0_31_209
*1271 FILLER_0_31_218
*1272 FILLER_0_31_228
*1273 FILLER_0_31_235
*1274 FILLER_0_31_251
*1275 FILLER_0_31_277
*1276 FILLER_0_31_287
*1277 FILLER_0_31_299
*1278 FILLER_0_31_3
*1279 FILLER_0_31_323
*1280 FILLER_0_31_42
*1281 FILLER_0_31_54
*1282 FILLER_0_31_57
*1283 FILLER_0_31_69
*1284 FILLER_0_31_93
*1285 FILLER_0_32_102
*1286 FILLER_0_32_11
*1287 FILLER_0_32_114
*1288 FILLER_0_32_122
*1289 FILLER_0_32_131
*1290 FILLER_0_32_139
*1291 FILLER_0_32_141
*1292 FILLER_0_32_146
*1293 FILLER_0_32_152
*1294 FILLER_0_32_169
*1295 FILLER_0_32_181
*1296 FILLER_0_32_191
*1297 FILLER_0_32_195
*1298 FILLER_0_32_197
*1299 FILLER_0_32_205
*1300 FILLER_0_32_240
*1301 FILLER_0_32_253
*1302 FILLER_0_32_29
*1303 FILLER_0_32_3
*1304 FILLER_0_32_300
*1305 FILLER_0_32_320
*1306 FILLER_0_32_332
*1307 FILLER_0_32_51
*1308 FILLER_0_32_55
*1309 FILLER_0_32_65
*1310 FILLER_0_32_77
*1311 FILLER_0_32_82
*1312 FILLER_0_33_133
*1313 FILLER_0_33_145
*1314 FILLER_0_33_153
*1315 FILLER_0_33_158
*1316 FILLER_0_33_166
*1317 FILLER_0_33_169
*1318 FILLER_0_33_181
*1319 FILLER_0_33_193
*1320 FILLER_0_33_205
*1321 FILLER_0_33_209
*1322 FILLER_0_33_216
*1323 FILLER_0_33_225
*1324 FILLER_0_33_231
*1325 FILLER_0_33_243
*1326 FILLER_0_33_250
*1327 FILLER_0_33_256
*1328 FILLER_0_33_274
*1329 FILLER_0_33_288
*1330 FILLER_0_33_3
*1331 FILLER_0_33_312
*1332 FILLER_0_33_330
*1333 FILLER_0_33_334
*1334 FILLER_0_33_51
*1335 FILLER_0_33_55
*1336 FILLER_0_33_57
*1337 FILLER_0_33_66
*1338 FILLER_0_33_74
*1339 FILLER_0_33_84
*1340 FILLER_0_33_92
*1341 FILLER_0_34_101
*1342 FILLER_0_34_120
*1343 FILLER_0_34_147
*1344 FILLER_0_34_15
*1345 FILLER_0_34_155
*1346 FILLER_0_34_176
*1347 FILLER_0_34_188
*1348 FILLER_0_34_230
*1349 FILLER_0_34_242
*1350 FILLER_0_34_27
*1351 FILLER_0_34_283
*1352 FILLER_0_34_29
*1353 FILLER_0_34_295
*1354 FILLER_0_34_3
*1355 FILLER_0_34_323
*1356 FILLER_0_34_51
*1357 FILLER_0_34_73
*1358 FILLER_0_34_77
*1359 FILLER_0_35_104
*1360 FILLER_0_35_111
*1361 FILLER_0_35_131
*1362 FILLER_0_35_15
*1363 FILLER_0_35_160
*1364 FILLER_0_35_177
*1365 FILLER_0_35_186
*1366 FILLER_0_35_194
*1367 FILLER_0_35_218
*1368 FILLER_0_35_225
*1369 FILLER_0_35_233
*1370 FILLER_0_35_248
*1371 FILLER_0_35_27
*1372 FILLER_0_35_277
*1373 FILLER_0_35_281
*1374 FILLER_0_35_293
*1375 FILLER_0_35_299
*1376 FILLER_0_35_3
*1377 FILLER_0_35_322
*1378 FILLER_0_35_334
*1379 FILLER_0_35_41
*1380 FILLER_0_35_53
*1381 FILLER_0_35_57
*1382 FILLER_0_36_105
*1383 FILLER_0_36_114
*1384 FILLER_0_36_138
*1385 FILLER_0_36_149
*1386 FILLER_0_36_15
*1387 FILLER_0_36_166
*1388 FILLER_0_36_185
*1389 FILLER_0_36_213
*1390 FILLER_0_36_231
*1391 FILLER_0_36_251
*1392 FILLER_0_36_253
*1393 FILLER_0_36_27
*1394 FILLER_0_36_271
*1395 FILLER_0_36_280
*1396 FILLER_0_36_29
*1397 FILLER_0_36_296
*1398 FILLER_0_36_3
*1399 FILLER_0_36_330
*1400 FILLER_0_36_334
*1401 FILLER_0_36_41
*1402 FILLER_0_36_45
*1403 FILLER_0_36_62
*1404 FILLER_0_36_85
*1405 FILLER_0_36_96
*1406 FILLER_0_37_110
*1407 FILLER_0_37_129
*1408 FILLER_0_37_147
*1409 FILLER_0_37_15
*1410 FILLER_0_37_185
*1411 FILLER_0_37_193
*1412 FILLER_0_37_210
*1413 FILLER_0_37_220
*1414 FILLER_0_37_225
*1415 FILLER_0_37_237
*1416 FILLER_0_37_241
*1417 FILLER_0_37_27
*1418 FILLER_0_37_277
*1419 FILLER_0_37_281
*1420 FILLER_0_37_3
*1421 FILLER_0_37_302
*1422 FILLER_0_37_309
*1423 FILLER_0_37_327
*1424 FILLER_0_37_39
*1425 FILLER_0_37_81
*1426 FILLER_0_37_93
*1427 FILLER_0_38_10
*1428 FILLER_0_38_110
*1429 FILLER_0_38_113
*1430 FILLER_0_38_118
*1431 FILLER_0_38_122
*1432 FILLER_0_38_126
*1433 FILLER_0_38_137
*1434 FILLER_0_38_14
*1435 FILLER_0_38_144
*1436 FILLER_0_38_150
*1437 FILLER_0_38_158
*1438 FILLER_0_38_169
*1439 FILLER_0_38_177
*1440 FILLER_0_38_18
*1441 FILLER_0_38_189
*1442 FILLER_0_38_195
*1443 FILLER_0_38_197
*1444 FILLER_0_38_203
*1445 FILLER_0_38_209
*1446 FILLER_0_38_22
*1447 FILLER_0_38_223
*1448 FILLER_0_38_225
*1449 FILLER_0_38_237
*1450 FILLER_0_38_249
*1451 FILLER_0_38_259
*1452 FILLER_0_38_271
*1453 FILLER_0_38_279
*1454 FILLER_0_38_281
*1455 FILLER_0_38_293
*1456 FILLER_0_38_302
*1457 FILLER_0_38_309
*1458 FILLER_0_38_32
*1459 FILLER_0_38_321
*1460 FILLER_0_38_330
*1461 FILLER_0_38_334
*1462 FILLER_0_38_38
*1463 FILLER_0_38_42
*1464 FILLER_0_38_46
*1465 FILLER_0_38_50
*1466 FILLER_0_38_54
*1467 FILLER_0_38_57
*1468 FILLER_0_38_6
*1469 FILLER_0_38_72
*1470 FILLER_0_38_78
*1471 FILLER_0_38_88
*1472 FILLER_0_38_94
*1473 FILLER_0_3_105
*1474 FILLER_0_3_111
*1475 FILLER_0_3_113
*1476 FILLER_0_3_125
*1477 FILLER_0_3_137
*1478 FILLER_0_3_149
*1479 FILLER_0_3_15
*1480 FILLER_0_3_161
*1481 FILLER_0_3_167
*1482 FILLER_0_3_169
*1483 FILLER_0_3_181
*1484 FILLER_0_3_193
*1485 FILLER_0_3_205
*1486 FILLER_0_3_217
*1487 FILLER_0_3_223
*1488 FILLER_0_3_225
*1489 FILLER_0_3_237
*1490 FILLER_0_3_249
*1491 FILLER_0_3_261
*1492 FILLER_0_3_27
*1493 FILLER_0_3_273
*1494 FILLER_0_3_279
*1495 FILLER_0_3_281
*1496 FILLER_0_3_293
*1497 FILLER_0_3_3
*1498 FILLER_0_3_305
*1499 FILLER_0_3_317
*1500 FILLER_0_3_329
*1501 FILLER_0_3_39
*1502 FILLER_0_3_51
*1503 FILLER_0_3_55
*1504 FILLER_0_3_57
*1505 FILLER_0_3_69
*1506 FILLER_0_3_81
*1507 FILLER_0_3_93
*1508 FILLER_0_4_109
*1509 FILLER_0_4_121
*1510 FILLER_0_4_133
*1511 FILLER_0_4_139
*1512 FILLER_0_4_141
*1513 FILLER_0_4_15
*1514 FILLER_0_4_153
*1515 FILLER_0_4_165
*1516 FILLER_0_4_177
*1517 FILLER_0_4_189
*1518 FILLER_0_4_195
*1519 FILLER_0_4_197
*1520 FILLER_0_4_209
*1521 FILLER_0_4_221
*1522 FILLER_0_4_233
*1523 FILLER_0_4_245
*1524 FILLER_0_4_251
*1525 FILLER_0_4_253
*1526 FILLER_0_4_265
*1527 FILLER_0_4_27
*1528 FILLER_0_4_277
*1529 FILLER_0_4_289
*1530 FILLER_0_4_29
*1531 FILLER_0_4_3
*1532 FILLER_0_4_301
*1533 FILLER_0_4_307
*1534 FILLER_0_4_309
*1535 FILLER_0_4_321
*1536 FILLER_0_4_333
*1537 FILLER_0_4_41
*1538 FILLER_0_4_53
*1539 FILLER_0_4_65
*1540 FILLER_0_4_77
*1541 FILLER_0_4_83
*1542 FILLER_0_4_85
*1543 FILLER_0_4_97
*1544 FILLER_0_5_105
*1545 FILLER_0_5_111
*1546 FILLER_0_5_113
*1547 FILLER_0_5_125
*1548 FILLER_0_5_137
*1549 FILLER_0_5_149
*1550 FILLER_0_5_15
*1551 FILLER_0_5_161
*1552 FILLER_0_5_167
*1553 FILLER_0_5_169
*1554 FILLER_0_5_181
*1555 FILLER_0_5_193