*SPEF "ieee 1481-1999"
*DESIGN "tt_um_faramire_stopwatch"
*DATE "19:55:46 Friday April 19, 2024"
*VENDOR "The OpenROAD Project"
*PROGRAM "OpenROAD"
*VERSION "0889970d1790a2617e69f253221b8bd7626e51dc"
*DESIGN_FLOW "NAME_SCOPE LOCAL" "PIN_CAP NONE"
*DIVIDER /
*DELIMITER :
*BUS_DELIMITER []
*T_UNIT 1 NS
*C_UNIT 1 PF
*R_UNIT 1 OHM
*L_UNIT 1 HENRY

*NAME_MAP
*3 clk
*4 ena
*5 rst_n
*6 ui_in[0]
*7 ui_in[1]
*8 ui_in[2]
*9 ui_in[3]
*10 ui_in[4]
*11 ui_in[5]
*12 ui_in[6]
*13 ui_in[7]
*14 uio_in[0]
*15 uio_in[1]
*16 uio_in[2]
*17 uio_in[3]
*18 uio_in[4]
*19 uio_in[5]
*20 uio_in[6]
*21 uio_in[7]
*22 net14
*23 net15
*24 net16
*25 net17
*26 net18
*27 net19
*28 net20
*29 net21
*30 net22
*31 net23
*32 net24
*33 net25
*34 net26
*35 net27
*36 net28
*37 net29
*38 uo_out[0]
*39 uo_out[1]
*40 uo_out[2]
*41 uo_out[3]
*42 uo_out[4]
*43 net30
*44 net31
*45 net32
*46 SPI_wrapper1\.Clk_SPI
*47 SPI_wrapper1\.Cs
*48 SPI_wrapper1\.Mosi
*49 SPI_wrapper1\.SPI_Master1\.count_bit\[0\]
*50 SPI_wrapper1\.SPI_Master1\.count_bit\[1\]
*51 SPI_wrapper1\.SPI_Master1\.count_bit\[2\]
*52 SPI_wrapper1\.SPI_Master1\.count_bit\[3\]
*53 SPI_wrapper1\.SPI_Master1\.count_word\[0\]
*54 SPI_wrapper1\.SPI_Master1\.count_word\[1\]
*55 SPI_wrapper1\.SPI_Master1\.count_word\[2\]
*56 SPI_wrapper1\.SPI_Master1\.count_word\[3\]
*57 SPI_wrapper1\.SPI_Master1\.report_ready
*58 SPI_wrapper1\.SPI_Master1\.report_send
*59 SPI_wrapper1\.SPI_Master1\.res
*60 SPI_wrapper1\.SPI_Master1\.state\[0\]
*61 SPI_wrapper1\.SPI_Master1\.state\[1\]
*62 SPI_wrapper1\.SPI_Master1\.state\[2\]
*63 SPI_wrapper1\.SPI_Master1\.word_in\[0\]
*64 SPI_wrapper1\.SPI_Master1\.word_in\[10\]
*65 SPI_wrapper1\.SPI_Master1\.word_in\[11\]
*66 SPI_wrapper1\.SPI_Master1\.word_in\[12\]
*67 SPI_wrapper1\.SPI_Master1\.word_in\[13\]
*68 SPI_wrapper1\.SPI_Master1\.word_in\[14\]
*69 SPI_wrapper1\.SPI_Master1\.word_in\[15\]
*70 SPI_wrapper1\.SPI_Master1\.word_in\[1\]
*71 SPI_wrapper1\.SPI_Master1\.word_in\[2\]
*72 SPI_wrapper1\.SPI_Master1\.word_in\[3\]
*73 SPI_wrapper1\.SPI_Master1\.word_in\[4\]
*74 SPI_wrapper1\.SPI_Master1\.word_in\[5\]
*75 SPI_wrapper1\.SPI_Master1\.word_in\[6\]
*76 SPI_wrapper1\.SPI_Master1\.word_in\[7\]
*77 SPI_wrapper1\.SPI_Master1\.word_in\[8\]
*78 SPI_wrapper1\.SPI_Master1\.word_in\[9\]
*79 SPI_wrapper1\.SPI_Master1\.word_out\[0\]
*80 SPI_wrapper1\.SPI_Master1\.word_out\[10\]
*81 SPI_wrapper1\.SPI_Master1\.word_out\[11\]
*82 SPI_wrapper1\.SPI_Master1\.word_out\[12\]
*83 SPI_wrapper1\.SPI_Master1\.word_out\[13\]
*84 SPI_wrapper1\.SPI_Master1\.word_out\[14\]
*85 SPI_wrapper1\.SPI_Master1\.word_out\[15\]
*86 SPI_wrapper1\.SPI_Master1\.word_out\[1\]
*87 SPI_wrapper1\.SPI_Master1\.word_out\[2\]
*88 SPI_wrapper1\.SPI_Master1\.word_out\[3\]
*89 SPI_wrapper1\.SPI_Master1\.word_out\[4\]
*90 SPI_wrapper1\.SPI_Master1\.word_out\[5\]
*91 SPI_wrapper1\.SPI_Master1\.word_out\[6\]
*92 SPI_wrapper1\.SPI_Master1\.word_out\[7\]
*93 SPI_wrapper1\.SPI_Master1\.word_out\[8\]
*94 SPI_wrapper1\.SPI_Master1\.word_out\[9\]
*95 SPI_wrapper1\.ces_0X\[0\]
*96 SPI_wrapper1\.ces_0X\[1\]
*97 SPI_wrapper1\.ces_0X\[2\]
*98 SPI_wrapper1\.ces_0X\[3\]
*99 SPI_wrapper1\.ces_X0\[0\]
*100 SPI_wrapper1\.ces_X0\[1\]
*101 SPI_wrapper1\.ces_X0\[2\]
*102 SPI_wrapper1\.ces_X0\[3\]
*103 SPI_wrapper1\.clk_div
*104 SPI_wrapper1\.digit_count\[0\]
*105 SPI_wrapper1\.digit_count\[1\]
*106 SPI_wrapper1\.digit_count\[2\]
*107 SPI_wrapper1\.digit_count\[3\]
*108 SPI_wrapper1\.digit_count\[4\]
*109 SPI_wrapper1\.digit_count\[5\]
*110 SPI_wrapper1\.digit_count\[6\]
*111 SPI_wrapper1\.ena
*112 SPI_wrapper1\.min_0X\[0\]
*113 SPI_wrapper1\.min_0X\[1\]
*114 SPI_wrapper1\.min_0X\[2\]
*115 SPI_wrapper1\.min_0X\[3\]
*116 SPI_wrapper1\.min_X0\[0\]
*117 SPI_wrapper1\.min_X0\[1\]
*118 SPI_wrapper1\.min_X0\[2\]
*119 SPI_wrapper1\.sec_0X\[0\]
*120 SPI_wrapper1\.sec_0X\[1\]
*121 SPI_wrapper1\.sec_0X\[2\]
*122 SPI_wrapper1\.sec_0X\[3\]
*123 SPI_wrapper1\.sec_X0\[0\]
*124 SPI_wrapper1\.sec_X0\[1\]
*125 SPI_wrapper1\.sec_X0\[2\]
*126 SPI_wrapper1\.sent_BCD
*127 SPI_wrapper1\.sent_ON
*128 SPI_wrapper1\.sent_SCN
*129 SPI_wrapper1\.state\[0\]
*130 SPI_wrapper1\.state\[1\]
*131 SPI_wrapper1\.state\[2\]
*132 SPI_wrapper1\.state\[3\]
*133 SPI_wrapper1\.state\[4\]
*134 SPI_wrapper1\.state\[5\]
*135 SPI_wrapper1\.state\[6\]
*136 SPI_wrapper1\.state\[7\]
*137 SPI_wrapper1\.wait_count\[0\]
*138 SPI_wrapper1\.wait_count\[1\]
*139 SPI_wrapper1\.wait_count\[2\]
*140 SPI_wrapper1\.wait_count\[3\]
*141 _000_
*142 _001_
*143 _002_
*144 _003_
*145 _004_
*146 _005_
*147 _006_
*148 _007_
*149 _008_
*150 _009_
*151 _010_
*152 _011_
*153 _012_
*154 _013_
*155 _014_
*156 _015_
*157 _016_
*158 _017_
*159 _018_
*160 _019_
*161 _020_
*162 _021_
*163 _022_
*164 _023_
*165 _024_
*166 _025_
*167 _026_
*168 _027_
*169 _028_
*170 _029_
*171 _030_
*172 _031_
*173 _032_
*174 _033_
*175 _034_
*176 _035_
*177 _036_
*178 _037_
*179 _038_
*180 _039_
*181 _040_
*182 _041_
*183 _042_
*184 _043_
*185 _044_
*186 _045_
*187 _046_
*188 _047_
*189 _048_
*190 _049_
*191 _050_
*192 _051_
*193 _052_
*194 _053_
*195 _054_
*196 _055_
*197 _056_
*198 _057_
*199 _058_
*200 _059_
*201 _060_
*202 _061_
*203 _062_
*204 _063_
*205 _064_
*206 _065_
*207 _066_
*208 _067_
*209 _068_
*210 _069_
*211 _070_
*212 _071_
*213 _072_
*214 _073_
*215 _074_
*216 _075_
*217 _076_
*218 _077_
*219 _078_
*220 _079_
*221 _080_
*222 _081_
*223 _082_
*224 _083_
*225 _084_
*226 _085_
*227 _086_
*228 _087_
*229 _088_
*230 _089_
*231 _090_
*232 _091_
*233 _092_
*234 _093_
*235 _094_
*236 _095_
*237 _096_
*238 _097_
*239 _098_
*240 _099_
*241 _100_
*242 _101_
*243 _102_
*244 _103_
*245 _104_
*246 _105_
*247 _106_
*248 _107_
*249 _108_
*250 _109_
*251 _110_
*252 _111_
*253 _112_
*254 _113_
*255 _114_
*256 _115_
*257 _116_
*258 _117_
*259 _118_
*260 _119_
*261 _120_
*262 _121_
*263 _122_
*264 _123_
*265 _124_
*266 _125_
*267 _126_
*268 _127_
*269 _128_
*270 _129_
*271 _130_
*272 _131_
*273 _132_
*274 _133_
*275 _134_
*276 _135_
*277 _136_
*278 _137_
*279 _138_
*280 _139_
*281 _140_
*282 _141_
*283 _142_
*284 _143_
*285 _144_
*286 _145_
*287 _146_
*288 _147_
*289 _148_
*290 _149_
*291 _150_
*292 _151_
*293 _152_
*294 _153_
*295 _154_
*296 _155_
*297 _156_
*298 _157_
*299 _158_
*300 _159_
*301 _160_
*302 _161_
*303 _162_
*304 _163_
*305 _164_
*306 _165_
*307 _166_
*308 _167_
*309 _168_
*310 _169_
*311 _170_
*312 _171_
*313 _172_
*314 _173_
*315 _174_
*316 _175_
*317 _176_
*318 _177_
*319 _178_
*320 _179_
*321 _180_
*322 _181_
*323 _182_
*324 _183_
*325 _184_
*326 _185_
*327 _186_
*328 _187_
*329 _188_
*330 _189_
*331 _190_
*332 _191_
*333 _192_
*334 _193_
*335 _194_
*336 _195_
*337 _196_
*338 _197_
*339 _198_
*340 _199_
*341 _200_
*342 _201_
*343 _202_
*344 _203_
*345 _204_
*346 _205_
*347 _206_
*348 _207_
*349 _208_
*350 _209_
*351 _210_
*352 _211_
*353 _212_
*354 _213_
*355 _214_
*356 _215_
*357 _216_
*358 _217_
*359 _218_
*360 _219_
*361 _220_
*362 _221_
*363 _222_
*364 _223_
*365 _224_
*366 _225_
*367 _226_
*368 _227_
*369 _228_
*370 _229_
*371 _230_
*372 _231_
*373 _232_
*374 _233_
*375 _234_
*376 _235_
*377 _236_
*378 _237_
*379 _238_
*380 _239_
*381 _240_
*382 _241_
*383 _242_
*384 _243_
*385 _244_
*386 _245_
*387 _246_
*388 _247_
*389 _248_
*390 _249_
*391 _250_
*392 _251_
*393 _252_
*394 _253_
*395 _254_
*396 _255_
*397 _256_
*398 _257_
*399 _258_
*400 _259_
*401 _260_
*402 _261_
*403 _262_
*404 _263_
*405 _264_
*406 _265_
*407 _266_
*408 _267_
*409 _268_
*410 _269_
*411 _270_
*412 _271_
*413 _272_
*414 _273_
*415 _274_
*416 _275_
*417 _276_
*418 _277_
*419 _278_
*420 _279_
*421 _280_
*422 _281_
*423 _282_
*424 _283_
*425 _284_
*426 _285_
*427 _286_
*428 _287_
*429 _288_
*430 _289_
*431 _290_
*432 _291_
*433 _292_
*434 _293_
*435 _294_
*436 _295_
*437 _296_
*438 _297_
*439 _298_
*440 _299_
*441 _300_
*442 _301_
*443 _302_
*444 _303_
*445 _304_
*446 _305_
*447 _306_
*448 _307_
*449 _308_
*450 _309_
*451 _310_
*452 _311_
*453 _312_
*454 _313_
*455 _314_
*456 _315_
*457 _316_
*458 _317_
*459 _318_
*460 _319_
*461 _320_
*462 _321_
*463 _322_
*464 _323_
*465 _324_
*466 _325_
*467 _326_
*468 _327_
*469 _328_
*470 _329_
*471 _330_
*472 _331_
*473 _332_
*474 _333_
*475 _334_
*476 _335_
*477 _336_
*478 _337_
*479 _338_
*480 _339_
*481 _340_
*482 _341_
*483 _342_
*484 _343_
*485 _344_
*486 _345_
*487 _346_
*488 _347_
*489 _348_
*490 _349_
*491 _350_
*492 _351_
*493 _352_
*494 _353_
*495 _354_
*496 _355_
*497 _356_
*498 _357_
*499 _358_
*500 _359_
*501 _360_
*502 _361_
*503 _362_
*504 _363_
*505 _364_
*506 _365_
*507 _366_
*508 _367_
*509 _368_
*510 _369_
*511 _370_
*512 _371_
*513 _372_
*514 _373_
*515 _374_
*516 _375_
*517 _376_
*518 _377_
*519 _378_
*520 _379_
*521 _380_
*522 _381_
*523 _382_
*524 _383_
*525 _384_
*526 _385_
*527 _386_
*528 _387_
*529 _388_
*530 _389_
*531 _390_
*532 _391_
*533 _392_
*534 _393_
*535 _394_
*536 clknet_0_clk
*537 clknet_3_0__leaf_clk
*538 clknet_3_1__leaf_clk
*539 clknet_3_2__leaf_clk
*540 clknet_3_3__leaf_clk
*541 clknet_3_4__leaf_clk
*542 clknet_3_5__leaf_clk
*543 clknet_3_6__leaf_clk
*544 clknet_3_7__leaf_clk
*545 clockDivider1\.counter\[0\]
*546 clockDivider1\.counter\[10\]
*547 clockDivider1\.counter\[11\]
*548 clockDivider1\.counter\[12\]
*549 clockDivider1\.counter\[13\]
*550 clockDivider1\.counter\[1\]
*551 clockDivider1\.counter\[2\]
*552 clockDivider1\.counter\[3\]
*553 clockDivider1\.counter\[4\]
*554 clockDivider1\.counter\[5\]
*555 clockDivider1\.counter\[6\]
*556 clockDivider1\.counter\[7\]
*557 clockDivider1\.counter\[8\]
*558 clockDivider1\.counter\[9\]
*559 clockDivider1\.ena
*560 clockDivider1\.res
*561 counter_chain1\.ces_X0_ena
*562 counter_chain1\.inst_ces_X0\.max
*563 counter_chain1\.inst_min_0X\.max
*564 counter_chain1\.inst_sec_0X\.max
*565 counter_chain1\.inst_sec_X0\.max
*566 net1
*567 net10
*568 net100
*569 net101
*570 net102
*571 net11
*572 net12
*573 net13
*574 net2
*575 net3
*576 net33
*577 net34
*578 net35
*579 net36
*580 net37
*581 net38
*582 net39
*583 net4
*584 net40
*585 net41
*586 net42
*587 net43
*588 net44
*589 net45
*590 net46
*591 net47
*592 net48
*593 net49
*594 net5
*595 net50
*596 net51
*597 net52
*598 net53
*599 net54
*600 net55
*601 net56
*602 net57
*603 net58
*604 net59
*605 net6
*606 net60
*607 net61
*608 net62
*609 net63
*610 net64
*611 net65
*612 net66
*613 net67
*614 net68
*615 net69
*616 net7
*617 net70
*618 net71
*619 net72
*620 net73
*621 net74
*622 net75
*623 net76
*624 net77
*625 net78
*626 net79
*627 net8
*628 net80
*629 net81
*630 net82
*631 net83
*632 net84
*633 net85
*634 net86
*635 net87
*636 net88
*637 net89
*638 net9
*639 net90
*640 net91
*641 net92
*642 net93
*643 net94
*644 net95
*645 net96
*646 net97
*647 net98
*648 net99
*649 FILLER_0_0_109
*650 FILLER_0_0_113
*651 FILLER_0_0_125
*652 FILLER_0_0_137
*653 FILLER_0_0_141
*654 FILLER_0_0_15
*655 FILLER_0_0_153
*656 FILLER_0_0_165
*657 FILLER_0_0_169
*658 FILLER_0_0_181
*659 FILLER_0_0_193
*660 FILLER_0_0_197
*661 FILLER_0_0_209
*662 FILLER_0_0_221
*663 FILLER_0_0_225
*664 FILLER_0_0_237
*665 FILLER_0_0_249
*666 FILLER_0_0_253
*667 FILLER_0_0_265
*668 FILLER_0_0_27
*669 FILLER_0_0_277
*670 FILLER_0_0_281
*671 FILLER_0_0_29
*672 FILLER_0_0_293
*673 FILLER_0_0_3
*674 FILLER_0_0_305
*675 FILLER_0_0_309
*676 FILLER_0_0_321
*677 FILLER_0_0_333
*678 FILLER_0_0_41
*679 FILLER_0_0_53
*680 FILLER_0_0_57
*681 FILLER_0_0_69
*682 FILLER_0_0_81
*683 FILLER_0_0_85
*684 FILLER_0_0_97
*685 FILLER_0_10_109
*686 FILLER_0_10_121
*687 FILLER_0_10_133
*688 FILLER_0_10_139
*689 FILLER_0_10_141
*690 FILLER_0_10_15
*691 FILLER_0_10_153
*692 FILLER_0_10_165
*693 FILLER_0_10_177
*694 FILLER_0_10_189
*695 FILLER_0_10_195
*696 FILLER_0_10_197
*697 FILLER_0_10_209
*698 FILLER_0_10_221
*699 FILLER_0_10_233
*700 FILLER_0_10_245
*701 FILLER_0_10_251
*702 FILLER_0_10_253
*703 FILLER_0_10_265
*704 FILLER_0_10_27
*705 FILLER_0_10_277
*706 FILLER_0_10_289
*707 FILLER_0_10_29
*708 FILLER_0_10_3
*709 FILLER_0_10_301
*710 FILLER_0_10_307
*711 FILLER_0_10_309
*712 FILLER_0_10_321
*713 FILLER_0_10_333
*714 FILLER_0_10_41
*715 FILLER_0_10_53
*716 FILLER_0_10_65
*717 FILLER_0_10_77
*718 FILLER_0_10_83
*719 FILLER_0_10_85
*720 FILLER_0_10_97
*721 FILLER_0_11_105
*722 FILLER_0_11_111
*723 FILLER_0_11_113
*724 FILLER_0_11_125
*725 FILLER_0_11_137
*726 FILLER_0_11_149
*727 FILLER_0_11_15
*728 FILLER_0_11_161
*729 FILLER_0_11_167
*730 FILLER_0_11_169
*731 FILLER_0_11_181
*732 FILLER_0_11_193
*733 FILLER_0_11_205
*734 FILLER_0_11_213
*735 FILLER_0_11_221
*736 FILLER_0_11_225
*737 FILLER_0_11_237
*738 FILLER_0_11_249
*739 FILLER_0_11_261
*740 FILLER_0_11_27
*741 FILLER_0_11_273
*742 FILLER_0_11_279
*743 FILLER_0_11_281
*744 FILLER_0_11_293
*745 FILLER_0_11_3
*746 FILLER_0_11_305
*747 FILLER_0_11_317
*748 FILLER_0_11_329
*749 FILLER_0_11_39
*750 FILLER_0_11_51
*751 FILLER_0_11_55
*752 FILLER_0_11_57
*753 FILLER_0_11_69
*754 FILLER_0_11_81
*755 FILLER_0_11_93
*756 FILLER_0_12_109
*757 FILLER_0_12_121
*758 FILLER_0_12_133
*759 FILLER_0_12_139
*760 FILLER_0_12_141
*761 FILLER_0_12_15
*762 FILLER_0_12_153
*763 FILLER_0_12_165
*764 FILLER_0_12_177
*765 FILLER_0_12_181
*766 FILLER_0_12_187
*767 FILLER_0_12_191
*768 FILLER_0_12_195
*769 FILLER_0_12_197
*770 FILLER_0_12_235
*771 FILLER_0_12_247
*772 FILLER_0_12_251
*773 FILLER_0_12_27
*774 FILLER_0_12_274
*775 FILLER_0_12_286
*776 FILLER_0_12_29
*777 FILLER_0_12_298
*778 FILLER_0_12_3
*779 FILLER_0_12_306
*780 FILLER_0_12_309
*781 FILLER_0_12_321
*782 FILLER_0_12_333
*783 FILLER_0_12_41
*784 FILLER_0_12_53
*785 FILLER_0_12_65
*786 FILLER_0_12_77
*787 FILLER_0_12_83
*788 FILLER_0_12_85
*789 FILLER_0_12_97
*790 FILLER_0_13_105
*791 FILLER_0_13_111
*792 FILLER_0_13_113
*793 FILLER_0_13_125
*794 FILLER_0_13_137
*795 FILLER_0_13_149
*796 FILLER_0_13_15
*797 FILLER_0_13_161
*798 FILLER_0_13_167
*799 FILLER_0_13_169
*800 FILLER_0_13_221
*801 FILLER_0_13_246
*802 FILLER_0_13_268
*803 FILLER_0_13_27
*804 FILLER_0_13_281
*805 FILLER_0_13_293
*806 FILLER_0_13_3
*807 FILLER_0_13_305
*808 FILLER_0_13_317
*809 FILLER_0_13_329
*810 FILLER_0_13_39
*811 FILLER_0_13_51
*812 FILLER_0_13_55
*813 FILLER_0_13_57
*814 FILLER_0_13_69
*815 FILLER_0_13_81
*816 FILLER_0_13_93
*817 FILLER_0_14_101
*818 FILLER_0_14_107
*819 FILLER_0_14_119
*820 FILLER_0_14_131
*821 FILLER_0_14_139
*822 FILLER_0_14_141
*823 FILLER_0_14_15
*824 FILLER_0_14_153
*825 FILLER_0_14_165
*826 FILLER_0_14_173
*827 FILLER_0_14_179
*828 FILLER_0_14_183
*829 FILLER_0_14_193
*830 FILLER_0_14_197
*831 FILLER_0_14_230
*832 FILLER_0_14_242
*833 FILLER_0_14_250
*834 FILLER_0_14_267
*835 FILLER_0_14_27
*836 FILLER_0_14_29
*837 FILLER_0_14_3
*838 FILLER_0_14_302
*839 FILLER_0_14_309
*840 FILLER_0_14_321
*841 FILLER_0_14_333
*842 FILLER_0_14_41
*843 FILLER_0_14_53
*844 FILLER_0_14_65
*845 FILLER_0_14_77
*846 FILLER_0_14_83
*847 FILLER_0_14_85
*848 FILLER_0_14_97
*849 FILLER_0_15_110
*850 FILLER_0_15_124
*851 FILLER_0_15_136
*852 FILLER_0_15_148
*853 FILLER_0_15_15
*854 FILLER_0_15_160
*855 FILLER_0_15_169
*856 FILLER_0_15_197
*857 FILLER_0_15_209
*858 FILLER_0_15_215
*859 FILLER_0_15_220
*860 FILLER_0_15_225
*861 FILLER_0_15_237
*862 FILLER_0_15_241
*863 FILLER_0_15_256
*864 FILLER_0_15_268
*865 FILLER_0_15_27
*866 FILLER_0_15_290
*867 FILLER_0_15_3
*868 FILLER_0_15_301
*869 FILLER_0_15_328
*870 FILLER_0_15_334
*871 FILLER_0_15_39
*872 FILLER_0_15_51
*873 FILLER_0_15_55
*874 FILLER_0_15_81
*875 FILLER_0_15_93
*876 FILLER_0_16_122
*877 FILLER_0_16_134
*878 FILLER_0_16_15
*879 FILLER_0_16_157
*880 FILLER_0_16_166
*881 FILLER_0_16_174
*882 FILLER_0_16_195
*883 FILLER_0_16_206
*884 FILLER_0_16_230
*885 FILLER_0_16_27
*886 FILLER_0_16_276
*887 FILLER_0_16_288
*888 FILLER_0_16_29
*889 FILLER_0_16_3
*890 FILLER_0_16_330
*891 FILLER_0_16_334
*892 FILLER_0_16_41
*893 FILLER_0_16_53
*894 FILLER_0_16_85
*895 FILLER_0_17_122
*896 FILLER_0_17_128
*897 FILLER_0_17_15
*898 FILLER_0_17_163
*899 FILLER_0_17_167
*900 FILLER_0_17_169
*901 FILLER_0_17_177
*902 FILLER_0_17_225
*903 FILLER_0_17_237
*904 FILLER_0_17_267
*905 FILLER_0_17_27
*906 FILLER_0_17_279
*907 FILLER_0_17_281
*908 FILLER_0_17_3
*909 FILLER_0_17_305
*910 FILLER_0_17_329
*911 FILLER_0_17_36
*912 FILLER_0_17_48
*913 FILLER_0_17_91
*914 FILLER_0_18_103
*915 FILLER_0_18_115
*916 FILLER_0_18_119
*917 FILLER_0_18_141
*918 FILLER_0_18_15
*919 FILLER_0_18_159
*920 FILLER_0_18_171
*921 FILLER_0_18_195
*922 FILLER_0_18_207
*923 FILLER_0_18_21
*924 FILLER_0_18_219
*925 FILLER_0_18_231
*926 FILLER_0_18_243
*927 FILLER_0_18_251
*928 FILLER_0_18_256
*929 FILLER_0_18_260
*930 FILLER_0_18_272
*931 FILLER_0_18_284
*932 FILLER_0_18_298
*933 FILLER_0_18_3
*934 FILLER_0_18_305
*935 FILLER_0_18_309
*936 FILLER_0_18_332
*937 FILLER_0_18_53
*938 FILLER_0_18_79
*939 FILLER_0_18_83
*940 FILLER_0_18_93
*941 FILLER_0_18_99
*942 FILLER_0_19_122
*943 FILLER_0_19_130
*944 FILLER_0_19_140
*945 FILLER_0_19_167
*946 FILLER_0_19_175
*947 FILLER_0_19_181
*948 FILLER_0_19_193
*949 FILLER_0_19_205
*950 FILLER_0_19_217
*951 FILLER_0_19_223
*952 FILLER_0_19_225
*953 FILLER_0_19_244
*954 FILLER_0_19_253
*955 FILLER_0_19_257
*956 FILLER_0_19_265
*957 FILLER_0_19_277
*958 FILLER_0_19_281
*959 FILLER_0_19_293
*960 FILLER_0_19_3
*961 FILLER_0_19_301
*962 FILLER_0_19_307
*963 FILLER_0_19_319
*964 FILLER_0_19_331
*965 FILLER_0_19_36
*966 FILLER_0_19_48
*967 FILLER_0_19_88
*968 FILLER_0_1_105
*969 FILLER_0_1_111
*970 FILLER_0_1_113
*971 FILLER_0_1_125
*972 FILLER_0_1_137
*973 FILLER_0_1_149
*974 FILLER_0_1_15
*975 FILLER_0_1_161
*976 FILLER_0_1_167
*977 FILLER_0_1_169
*978 FILLER_0_1_181
*979 FILLER_0_1_193
*980 FILLER_0_1_205
*981 FILLER_0_1_217
*982 FILLER_0_1_223
*983 FILLER_0_1_225
*984 FILLER_0_1_237
*985 FILLER_0_1_249
*986 FILLER_0_1_261
*987 FILLER_0_1_27
*988 FILLER_0_1_273
*989 FILLER_0_1_279
*990 FILLER_0_1_281
*991 FILLER_0_1_293
*992 FILLER_0_1_3
*993 FILLER_0_1_305
*994 FILLER_0_1_317
*995 FILLER_0_1_329
*996 FILLER_0_1_39
*997 FILLER_0_1_51
*998 FILLER_0_1_55
*999 FILLER_0_1_57
*1000 FILLER_0_1_69
*1001 FILLER_0_1_81
*1002 FILLER_0_1_93
*1003 FILLER_0_20_126
*1004 FILLER_0_20_138
*1005 FILLER_0_20_15
*1006 FILLER_0_20_157
*1007 FILLER_0_20_168
*1008 FILLER_0_20_175
*1009 FILLER_0_20_187
*1010 FILLER_0_20_195
*1011 FILLER_0_20_205
*1012 FILLER_0_20_217
*1013 FILLER_0_20_225
*1014 FILLER_0_20_229
*1015 FILLER_0_20_245
*1016 FILLER_0_20_251
*1017 FILLER_0_20_276
*1018 FILLER_0_20_288
*1019 FILLER_0_20_29
*1020 FILLER_0_20_3
*1021 FILLER_0_20_300
*1022 FILLER_0_20_304
*1023 FILLER_0_20_332
*1024 FILLER_0_20_50
*1025 FILLER_0_20_62
*1026 FILLER_0_20_71
*1027 FILLER_0_20_94
*1028 FILLER_0_21_102
*1029 FILLER_0_21_11
*1030 FILLER_0_21_110
*1031 FILLER_0_21_129
*1032 FILLER_0_21_154
*1033 FILLER_0_21_163
*1034 FILLER_0_21_167
*1035 FILLER_0_21_182
*1036 FILLER_0_21_206
*1037 FILLER_0_21_242
*1038 FILLER_0_21_250
*1039 FILLER_0_21_3
*1040 FILLER_0_21_30
*1041 FILLER_0_21_328
*1042 FILLER_0_21_334
*1043 FILLER_0_21_49
*1044 FILLER_0_21_55
*1045 FILLER_0_22_105
*1046 FILLER_0_22_109
*1047 FILLER_0_22_118
*1048 FILLER_0_22_141
*1049 FILLER_0_22_15
*1050 FILLER_0_22_180
*1051 FILLER_0_22_195
*1052 FILLER_0_22_213
*1053 FILLER_0_22_247
*1054 FILLER_0_22_251
*1055 FILLER_0_22_281
*1056 FILLER_0_22_293
*1057 FILLER_0_22_297
*1058 FILLER_0_22_3
*1059 FILLER_0_22_328
*1060 FILLER_0_22_334
*1061 FILLER_0_22_38
*1062 FILLER_0_23_103
*1063 FILLER_0_23_11
*1064 FILLER_0_23_128
*1065 FILLER_0_23_132
*1066 FILLER_0_23_149
*1067 FILLER_0_23_156
*1068 FILLER_0_23_164
*1069 FILLER_0_23_169
*1070 FILLER_0_23_180
*1071 FILLER_0_23_192
*1072 FILLER_0_23_214
*1073 FILLER_0_23_242
*1074 FILLER_0_23_254
*1075 FILLER_0_23_279
*1076 FILLER_0_23_284
*1077 FILLER_0_23_296
*1078 FILLER_0_23_3
*1079 FILLER_0_23_323
*1080 FILLER_0_23_39
*1081 FILLER_0_23_47
*1082 FILLER_0_23_91
*1083 FILLER_0_24_102
*1084 FILLER_0_24_135
*1085 FILLER_0_24_139
*1086 FILLER_0_24_149
*1087 FILLER_0_24_15
*1088 FILLER_0_24_168
*1089 FILLER_0_24_190
*1090 FILLER_0_24_21
*1091 FILLER_0_24_213
*1092 FILLER_0_24_224
*1093 FILLER_0_24_236
*1094 FILLER_0_24_248
*1095 FILLER_0_24_253
*1096 FILLER_0_24_259
*1097 FILLER_0_24_285
*1098 FILLER_0_24_297
*1099 FILLER_0_24_3
*1100 FILLER_0_24_305
*1101 FILLER_0_24_317
*1102 FILLER_0_24_329
*1103 FILLER_0_24_46
*1104 FILLER_0_24_58
*1105 FILLER_0_24_94
*1106 FILLER_0_25_104
*1107 FILLER_0_25_113
*1108 FILLER_0_25_119
*1109 FILLER_0_25_136
*1110 FILLER_0_25_142
*1111 FILLER_0_25_146
*1112 FILLER_0_25_15
*1113 FILLER_0_25_166
*1114 FILLER_0_25_169
*1115 FILLER_0_25_178
*1116 FILLER_0_25_187
*1117 FILLER_0_25_202
*1118 FILLER_0_25_241
*1119 FILLER_0_25_249
*1120 FILLER_0_25_279
*1121 FILLER_0_25_286
*1122 FILLER_0_25_291
*1123 FILLER_0_25_3
*1124 FILLER_0_25_324
*1125 FILLER_0_25_332
*1126 FILLER_0_25_45
*1127 FILLER_0_25_76
*1128 FILLER_0_25_86
*1129 FILLER_0_26_107
*1130 FILLER_0_26_119
*1131 FILLER_0_26_137
*1132 FILLER_0_26_141
*1133 FILLER_0_26_15
*1134 FILLER_0_26_159
*1135 FILLER_0_26_194
*1136 FILLER_0_26_23
*1137 FILLER_0_26_244
*1138 FILLER_0_26_253
*1139 FILLER_0_26_27
*1140 FILLER_0_26_278
*1141 FILLER_0_26_29
*1142 FILLER_0_26_290
*1143 FILLER_0_26_3
*1144 FILLER_0_26_301
*1145 FILLER_0_26_330
*1146 FILLER_0_26_334
*1147 FILLER_0_26_78
*1148 FILLER_0_26_85
*1149 FILLER_0_26_95
*1150 FILLER_0_27_108
*1151 FILLER_0_27_15
*1152 FILLER_0_27_169
*1153 FILLER_0_27_193
*1154 FILLER_0_27_241
*1155 FILLER_0_27_27
*1156 FILLER_0_27_270
*1157 FILLER_0_27_278
*1158 FILLER_0_27_281
*1159 FILLER_0_27_289
*1160 FILLER_0_27_3
*1161 FILLER_0_27_333
*1162 FILLER_0_27_50
*1163 FILLER_0_27_57
*1164 FILLER_0_27_70
*1165 FILLER_0_27_90
*1166 FILLER_0_28_116
*1167 FILLER_0_28_139
*1168 FILLER_0_28_141
*1169 FILLER_0_28_148
*1170 FILLER_0_28_15
*1171 FILLER_0_28_156
*1172 FILLER_0_28_166
*1173 FILLER_0_28_178
*1174 FILLER_0_28_190
*1175 FILLER_0_28_217
*1176 FILLER_0_28_244
*1177 FILLER_0_28_253
*1178 FILLER_0_28_265
*1179 FILLER_0_28_269
*1180 FILLER_0_28_27
*1181 FILLER_0_28_276
*1182 FILLER_0_28_280
*1183 FILLER_0_28_289
*1184 FILLER_0_28_29
*1185 FILLER_0_28_299
*1186 FILLER_0_28_3
*1187 FILLER_0_28_307
*1188 FILLER_0_28_309
*1189 FILLER_0_28_321
*1190 FILLER_0_28_333
*1191 FILLER_0_28_41
*1192 FILLER_0_28_53
*1193 FILLER_0_28_57
*1194 FILLER_0_28_77
*1195 FILLER_0_28_83
*1196 FILLER_0_28_93
*1197 FILLER_0_28_99
*1198 FILLER_0_29_103
*1199 FILLER_0_29_110
*1200 FILLER_0_29_124
*1201 FILLER_0_29_134
*1202 FILLER_0_29_146
*1203 FILLER_0_29_15
*1204 FILLER_0_29_153
*1205 FILLER_0_29_166
*1206 FILLER_0_29_172
*1207 FILLER_0_29_184
*1208 FILLER_0_29_192
*1209 FILLER_0_29_201
*1210 FILLER_0_29_207
*1211 FILLER_0_29_214
*1212 FILLER_0_29_222
*1213 FILLER_0_29_229
*1214 FILLER_0_29_241
*1215 FILLER_0_29_247
*1216 FILLER_0_29_268
*1217 FILLER_0_29_297
*1218 FILLER_0_29_3
*1219 FILLER_0_29_309
*1220 FILLER_0_29_318
*1221 FILLER_0_29_330
*1222 FILLER_0_29_334
*1223 FILLER_0_29_35
*1224 FILLER_0_29_44
*1225 FILLER_0_29_50
*1226 FILLER_0_29_73
*1227 FILLER_0_29_99
*1228 FILLER_0_2_109
*1229 FILLER_0_2_121
*1230 FILLER_0_2_133
*1231 FILLER_0_2_139
*1232 FILLER_0_2_141
*1233 FILLER_0_2_15
*1234 FILLER_0_2_153
*1235 FILLER_0_2_165
*1236 FILLER_0_2_177
*1237 FILLER_0_2_189
*1238 FILLER_0_2_195
*1239 FILLER_0_2_197
*1240 FILLER_0_2_209
*1241 FILLER_0_2_221
*1242 FILLER_0_2_233
*1243 FILLER_0_2_245
*1244 FILLER_0_2_251
*1245 FILLER_0_2_253
*1246 FILLER_0_2_265
*1247 FILLER_0_2_27
*1248 FILLER_0_2_277
*1249 FILLER_0_2_289
*1250 FILLER_0_2_29
*1251 FILLER_0_2_3
*1252 FILLER_0_2_301
*1253 FILLER_0_2_307
*1254 FILLER_0_2_309
*1255 FILLER_0_2_321
*1256 FILLER_0_2_333
*1257 FILLER_0_2_41
*1258 FILLER_0_2_53
*1259 FILLER_0_2_65
*1260 FILLER_0_2_77
*1261 FILLER_0_2_83
*1262 FILLER_0_2_85
*1263 FILLER_0_2_97
*1264 FILLER_0_30_104
*1265 FILLER_0_30_114
*1266 FILLER_0_30_134
*1267 FILLER_0_30_141
*1268 FILLER_0_30_15
*1269 FILLER_0_30_170
*1270 FILLER_0_30_182
*1271 FILLER_0_30_193
*1272 FILLER_0_30_21
*1273 FILLER_0_30_220
*1274 FILLER_0_30_232
*1275 FILLER_0_30_244
*1276 FILLER_0_30_253
*1277 FILLER_0_30_270
*1278 FILLER_0_30_3
*1279 FILLER_0_30_314
*1280 FILLER_0_30_331
*1281 FILLER_0_30_64
*1282 FILLER_0_30_79
*1283 FILLER_0_30_85
*1284 FILLER_0_31_107
*1285 FILLER_0_31_136
*1286 FILLER_0_31_15
*1287 FILLER_0_31_169
*1288 FILLER_0_31_178
*1289 FILLER_0_31_203
*1290 FILLER_0_31_23
*1291 FILLER_0_31_231
*1292 FILLER_0_31_243
*1293 FILLER_0_31_274
*1294 FILLER_0_31_3
*1295 FILLER_0_31_307
*1296 FILLER_0_31_331
*1297 FILLER_0_31_40
*1298 FILLER_0_31_64
*1299 FILLER_0_31_87
*1300 FILLER_0_31_99
*1301 FILLER_0_32_132
*1302 FILLER_0_32_141
*1303 FILLER_0_32_15
*1304 FILLER_0_32_171
*1305 FILLER_0_32_179
*1306 FILLER_0_32_194
*1307 FILLER_0_32_227
*1308 FILLER_0_32_239
*1309 FILLER_0_32_251
*1310 FILLER_0_32_253
*1311 FILLER_0_32_27
*1312 FILLER_0_32_279
*1313 FILLER_0_32_287
*1314 FILLER_0_32_29
*1315 FILLER_0_32_295
*1316 FILLER_0_32_299
*1317 FILLER_0_32_3
*1318 FILLER_0_32_329
*1319 FILLER_0_32_51
*1320 FILLER_0_32_68
*1321 FILLER_0_32_98
*1322 FILLER_0_33_101
*1323 FILLER_0_33_109
*1324 FILLER_0_33_125
*1325 FILLER_0_33_137
*1326 FILLER_0_33_149
*1327 FILLER_0_33_15
*1328 FILLER_0_33_161
*1329 FILLER_0_33_167
*1330 FILLER_0_33_169
*1331 FILLER_0_33_184
*1332 FILLER_0_33_202
*1333 FILLER_0_33_225
*1334 FILLER_0_33_237
*1335 FILLER_0_33_249
*1336 FILLER_0_33_27
*1337 FILLER_0_33_281
*1338 FILLER_0_33_292
*1339 FILLER_0_33_3
*1340 FILLER_0_33_304
*1341 FILLER_0_33_308
*1342 FILLER_0_33_314
*1343 FILLER_0_33_326
*1344 FILLER_0_33_334
*1345 FILLER_0_33_35
*1346 FILLER_0_33_51
*1347 FILLER_0_33_55
*1348 FILLER_0_33_73
*1349 FILLER_0_33_89
*1350 FILLER_0_34_103
*1351 FILLER_0_34_129
*1352 FILLER_0_34_137
*1353 FILLER_0_34_141
*1354 FILLER_0_34_15
*1355 FILLER_0_34_153
*1356 FILLER_0_34_165
*1357 FILLER_0_34_173
*1358 FILLER_0_34_197
*1359 FILLER_0_34_209
*1360 FILLER_0_34_221
*1361 FILLER_0_34_227
*1362 FILLER_0_34_250
*1363 FILLER_0_34_27
*1364 FILLER_0_34_288
*1365 FILLER_0_34_29
*1366 FILLER_0_34_3
*1367 FILLER_0_34_300
*1368 FILLER_0_34_317
*1369 FILLER_0_34_329
*1370 FILLER_0_34_41
*1371 FILLER_0_34_53
*1372 FILLER_0_34_63
*1373 FILLER_0_35_103
*1374 FILLER_0_35_111
*1375 FILLER_0_35_119
*1376 FILLER_0_35_15
*1377 FILLER_0_35_161
*1378 FILLER_0_35_167
*1379 FILLER_0_35_185
*1380 FILLER_0_35_206
*1381 FILLER_0_35_218
*1382 FILLER_0_35_225
*1383 FILLER_0_35_27
*1384 FILLER_0_35_284
*1385 FILLER_0_35_296
*1386 FILLER_0_35_3
*1387 FILLER_0_35_328
*1388 FILLER_0_35_334
*1389 FILLER_0_35_39
*1390 FILLER_0_35_57
*1391 FILLER_0_35_71
*1392 FILLER_0_36_101
*1393 FILLER_0_36_123
*1394 FILLER_0_36_127
*1395 FILLER_0_36_131
*1396 FILLER_0_36_149
*1397 FILLER_0_36_15
*1398 FILLER_0_36_161
*1399 FILLER_0_36_213
*1400 FILLER_0_36_263
*1401 FILLER_0_36_27
*1402 FILLER_0_36_29
*1403 FILLER_0_36_290
*1404 FILLER_0_36_3
*1405 FILLER_0_36_309
*1406 FILLER_0_36_334
*1407 FILLER_0_36_41
*1408 FILLER_0_36_47
*1409 FILLER_0_36_72
*1410 FILLER_0_37_109
*1411 FILLER_0_37_113
*1412 FILLER_0_37_119
*1413 FILLER_0_37_125
*1414 FILLER_0_37_149
*1415 FILLER_0_37_15
*1416 FILLER_0_37_162
*1417 FILLER_0_37_201
*1418 FILLER_0_37_220
*1419 FILLER_0_37_225
*1420 FILLER_0_37_229
*1421 FILLER_0_37_248
*1422 FILLER_0_37_268
*1423 FILLER_0_37_27
*1424 FILLER_0_37_298
*1425 FILLER_0_37_3
*1426 FILLER_0_37_332
*1427 FILLER_0_37_39
*1428 FILLER_0_37_51
*1429 FILLER_0_37_55
*1430 FILLER_0_37_97
*1431 FILLER_0_38_10
*1432 FILLER_0_38_102
*1433 FILLER_0_38_106
*1434 FILLER_0_38_110
*1435 FILLER_0_38_113
*1436 FILLER_0_38_118
*1437 FILLER_0_38_122
*1438 FILLER_0_38_126
*1439 FILLER_0_38_130
*1440 FILLER_0_38_134
*1441 FILLER_0_38_14
*1442 FILLER_0_38_144
*1443 FILLER_0_38_150
*1444 FILLER_0_38_162
*1445 FILLER_0_38_169
*1446 FILLER_0_38_177
*1447 FILLER_0_38_18
*1448 FILLER_0_38_191
*1449 FILLER_0_38_195
*1450 FILLER_0_38_213
*1451 FILLER_0_38_22
*1452 FILLER_0_38_221
*1453 FILLER_0_38_225
*1454 FILLER_0_38_237
*1455 FILLER_0_38_243
*1456 FILLER_0_38_251
*1457 FILLER_0_38_253
*1458 FILLER_0_38_265
*1459 FILLER_0_38_277
*1460 FILLER_0_38_281
*1461 FILLER_0_38_293
*1462 FILLER_0_38_302
*1463 FILLER_0_38_312
*1464 FILLER_0_38_32
*1465 FILLER_0_38_321
*1466 FILLER_0_38_327
*1467 FILLER_0_38_38
*1468 FILLER_0_38_42
*1469 FILLER_0_38_46
*1470 FILLER_0_38_57
*1471 FILLER_0_38_6
*1472 FILLER_0_38_69
*1473 FILLER_0_38_81
*1474 FILLER_0_38_88
*1475 FILLER_0_38_94
*1476 FILLER_0_38_98
*1477 FILLER_0_3_105
*1478 FILLER_0_3_111
*1479 FILLER_0_3_113
*1480 FILLER_0_3_125
*1481 FILLER_0_3_137
*1482 FILLER_0_3_149
*1483 FILLER_0_3_15
*1484 FILLER_0_3_161
*1485 FILLER_0_3_167
*1486 FILLER_0_3_169
*1487 FILLER_0_3_181
*1488 FILLER_0_3_193
*1489 FILLER_0_3_205
*1490 FILLER_0_3_217
*1491 FILLER_0_3_223
*1492 FILLER_0_3_225
*1493 FILLER_0_3_237
*1494 FILLER_0_3_249
*1495 FILLER_0_3_261
*1496 FILLER_0_3_27
*1497 FILLER_0_3_273
*1498 FILLER_0_3_279
*1499 FILLER_0_3_281
*1500 FILLER_0_3_293
*1501 FILLER_0_3_3
*1502 FILLER_0_3_305
*1503 FILLER_0_3_317
*1504 FILLER_0_3_329
*1505 FILLER_0_3_39
*1506 FILLER_0_3_51
*1507 FILLER_0_3_55
*1508 FILLER_0_3_57
*1509 FILLER_0_3_69
*1510 FILLER_0_3_81
*1511 FILLER_0_3_93
*1512 FILLER_0_4_109
*1513 FILLER_0_4_121
*1514 FILLER_0_4_133
*1515 FILLER_0_4_139
*1516 FILLER_0_4_141
*1517 FILLER_0_4_15
*1518 FILLER_0_4_153
*1519 FILLER_0_4_165
*1520 FILLER_0_4_177
*1521 FILLER_0_4_189
*1522 FILLER_0_4_195
*1523 FILLER_0_4_197
*1524 FILLER_0_4_209
*1525 FILLER_0_4_221
*1526 FILLER_0_4_233
*1527 FILLER_0_4_245
*1528 FILLER_0_4_251
*1529 FILLER_0_4_253
*1530 FILLER_0_4_265
*1531 FILLER_0_4_27
*1532 FILLER_0_4_277
*1533 FILLER_0_4_289
*1534 FILLER_0_4_29
*1535 FILLER_0_4_3
*1536 FILLER_0_4_301
*1537 FILLER_0_4_307
*1538 FILLER_0_4_309
*1539 FILLER_0_4_321
*1540 FILLER_0_4_333
*1541 FILLER_0_4_41
*1542 FILLER_0_4_53
*1543 FILLER_0_4_65
*1544 FILLER_0_4_77
*1545 FILLER_0_4_83
*1546 FILLER_0_4_85
*1547 FILLER_0_4_97
*1548 FILLER_0_5_105
*1549 FILLER_0_5_111
*1550 FILLER_0_5_113
*1551 FILLER_0_5_125
*1552 FILLER_0_5_137
*1553 FILLER_0_5_149
*1554 FILLER_0_5_15
*1555 FILLER_0_5_161
*1556 FILLER_0_5_167
*1557 FILLER_0_5_169
*1558 FILLER_0_5_181
*1559 FILLER_0_5_193
*1560 FILLER_0_5_205
*1561 FILLER_0_5_217
*1562 FILLER_0_5_223
*1563 FILLER_0_5_225
*1564 FILLER_0_5_237
*1565 FILLER_0_5_249
*1566 FILLER_0_5_261
*1567 FILLER_0_5_27
*1568 FILLER_0_5_273
*1569 FILLER_0_5_279