*SPEF "ieee 1481-1999"
*DESIGN "tt_um_dieroller_nathangross1"
*DATE "11:11:11 Fri 11 11, 1111"
*VENDOR "OpenRCX"
*PROGRAM "Parallel Extraction"
*VERSION "1.0"
*DESIGN_FLOW "NAME_SCOPE LOCAL" "PIN_CAP NONE"
*DIVIDER /
*DELIMITER :
*BUS_DELIMITER []
*T_UNIT 1 NS
*C_UNIT 1 PF
*R_UNIT 1 OHM
*L_UNIT 1 HENRY

*NAME_MAP
*3 clk
*4 ena
*5 rst_n
*6 ui_in[0]
*7 ui_in[1]
*8 ui_in[2]
*9 ui_in[3]
*10 ui_in[4]
*11 ui_in[5]
*12 ui_in[6]
*13 ui_in[7]
*14 uio_in[0]
*15 uio_in[1]
*16 uio_in[2]
*17 uio_in[3]
*18 uio_in[4]
*19 uio_in[5]
*20 uio_in[6]
*21 uio_in[7]
*22 net20
*23 net21
*24 net22
*25 net23
*26 net24
*27 net25
*28 net26
*29 net27
*30 net28
*31 net29
*32 net30
*33 net31
*34 net32
*35 net33
*36 net34
*37 net35
*38 uo_out[0]
*39 uo_out[1]
*40 uo_out[2]
*41 uo_out[3]
*42 uo_out[4]
*43 uo_out[5]
*44 uo_out[6]
*45 uo_out[7]
*46 _0000_
*47 _0001_
*48 _0002_
*49 _0003_
*50 _0004_
*51 _0005_
*52 _0006_
*53 _0007_
*54 _0008_
*55 _0009_
*56 _0010_
*57 _0011_
*58 _0012_
*59 _0013_
*60 _0014_
*61 _0015_
*62 _0016_
*63 _0017_
*64 _0018_
*65 _0019_
*66 _0020_
*67 _0021_
*68 _0022_
*69 _0023_
*70 _0024_
*71 _0025_
*72 _0026_
*73 _0027_
*74 _0028_
*75 _0029_
*76 _0030_
*77 _0031_
*78 _0032_
*79 _0033_
*80 _0034_
*81 _0035_
*82 _0036_
*83 _0037_
*84 _0038_
*85 _0039_
*86 _0040_
*87 _0041_
*88 _0042_
*89 _0043_
*90 _0044_
*91 _0045_
*92 _0046_
*93 _0047_
*94 _0048_
*95 _0049_
*96 _0050_
*97 _0051_
*98 _0052_
*99 _0053_
*100 _0054_
*101 _0055_
*102 _0056_
*103 _0057_
*104 _0058_
*105 _0059_
*106 _0060_
*107 _0061_
*108 _0062_
*109 _0063_
*110 _0064_
*111 _0065_
*112 _0066_
*113 _0067_
*114 _0068_
*115 _0069_
*116 _0070_
*117 _0071_
*118 _0072_
*119 _0073_
*120 _0074_
*121 _0075_
*122 _0076_
*123 _0077_
*124 _0078_
*125 _0079_
*126 _0080_
*127 _0081_
*128 _0082_
*129 _0083_
*130 _0084_
*131 _0085_
*132 _0086_
*133 _0087_
*134 _0088_
*135 _0089_
*136 _0090_
*137 _0091_
*138 _0092_
*139 _0093_
*140 _0094_
*141 _0095_
*142 _0096_
*143 _0097_
*144 _0098_
*145 _0099_
*146 _0100_
*147 _0101_
*148 _0102_
*149 _0103_
*150 _0104_
*151 _0105_
*152 _0106_
*153 _0107_
*154 _0108_
*155 _0109_
*156 _0110_
*157 _0111_
*158 _0112_
*159 _0113_
*160 _0114_
*161 _0115_
*162 _0116_
*163 _0117_
*164 _0118_
*165 _0119_
*166 _0120_
*167 _0121_
*168 _0122_
*169 _0123_
*170 _0124_
*171 _0125_
*172 _0126_
*173 _0127_
*174 _0128_
*175 _0129_
*176 _0130_
*177 _0131_
*178 _0132_
*179 _0133_
*180 _0134_
*181 _0135_
*182 _0136_
*183 _0137_
*184 _0138_
*185 _0139_
*186 _0140_
*187 _0141_
*188 _0142_
*189 _0143_
*190 _0144_
*191 _0145_
*192 _0146_
*193 _0147_
*194 _0148_
*195 _0149_
*196 _0150_
*197 _0151_
*198 _0152_
*199 _0153_
*200 _0154_
*201 _0155_
*202 _0156_
*203 _0157_
*204 _0158_
*205 _0159_
*206 _0160_
*207 _0161_
*208 _0162_
*209 _0163_
*210 _0164_
*211 _0165_
*212 _0166_
*213 _0167_
*214 _0168_
*215 _0169_
*216 _0170_
*217 _0171_
*218 _0172_
*219 _0173_
*220 _0174_
*221 _0175_
*222 _0176_
*223 _0177_
*224 _0178_
*225 _0179_
*226 _0180_
*227 _0181_
*228 _0182_
*229 _0183_
*230 _0184_
*231 _0185_
*232 _0186_
*233 _0187_
*234 _0188_
*235 _0189_
*236 _0190_
*237 _0191_
*238 _0192_
*239 _0193_
*240 _0194_
*241 _0195_
*242 _0196_
*243 _0197_
*244 _0198_
*245 _0199_
*246 _0200_
*247 _0201_
*248 _0202_
*249 _0203_
*250 _0204_
*251 _0205_
*252 _0206_
*253 _0207_
*254 _0208_
*255 _0209_
*256 _0210_
*257 _0211_
*258 _0212_
*259 _0213_
*260 _0214_
*261 _0215_
*262 _0216_
*263 _0217_
*264 _0218_
*265 _0219_
*266 _0220_
*267 _0221_
*268 _0222_
*269 _0223_
*270 _0224_
*271 _0225_
*272 _0226_
*273 _0227_
*274 _0228_
*275 _0229_
*276 _0230_
*277 _0231_
*278 _0232_
*279 _0233_
*280 _0234_
*281 _0235_
*282 _0236_
*283 _0237_
*284 _0238_
*285 _0239_
*286 _0240_
*287 _0241_
*288 _0242_
*289 _0243_
*290 _0244_
*291 _0245_
*292 _0246_
*293 _0247_
*294 _0248_
*295 _0249_
*296 _0250_
*297 _0251_
*298 _0252_
*299 _0253_
*300 _0254_
*301 _0255_
*302 _0256_
*303 _0257_
*304 _0258_
*305 _0259_
*306 _0260_
*307 _0261_
*308 _0262_
*309 _0263_
*310 _0264_
*311 _0265_
*312 _0266_
*313 _0267_
*314 _0268_
*315 _0269_
*316 _0270_
*317 _0271_
*318 _0272_
*319 _0273_
*320 _0274_
*321 _0275_
*322 _0276_
*323 _0277_
*324 _0278_
*325 _0279_
*326 _0280_
*327 _0281_
*328 _0282_
*329 _0283_
*330 _0284_
*331 _0285_
*332 _0286_
*333 _0287_
*334 _0288_
*335 _0289_
*336 _0290_
*337 _0291_
*338 _0292_
*339 _0293_
*340 _0294_
*341 _0295_
*342 _0296_
*343 _0297_
*344 _0298_
*345 _0299_
*346 _0300_
*347 _0301_
*348 _0302_
*349 _0303_
*350 _0304_
*351 _0305_
*352 _0306_
*353 _0307_
*354 _0308_
*355 _0309_
*356 _0310_
*357 _0311_
*358 _0312_
*359 _0313_
*360 _0314_
*361 _0315_
*362 _0316_
*363 _0317_
*364 _0318_
*365 _0319_
*366 _0320_
*367 _0321_
*368 _0322_
*369 _0323_
*370 _0324_
*371 _0325_
*372 _0326_
*373 _0327_
*374 _0328_
*375 _0329_
*376 _0330_
*377 _0331_
*378 _0332_
*379 _0333_
*380 _0334_
*381 _0335_
*382 _0336_
*383 _0337_
*384 _0338_
*385 _0339_
*386 _0340_
*387 _0341_
*388 _0342_
*389 _0343_
*390 _0344_
*391 _0345_
*392 _0346_
*393 _0347_
*394 _0348_
*395 _0349_
*396 _0350_
*397 _0351_
*398 _0352_
*399 _0353_
*400 _0354_
*401 _0355_
*402 _0356_
*403 _0357_
*404 _0358_
*405 _0359_
*406 _0360_
*407 _0361_
*408 _0362_
*409 _0363_
*410 _0364_
*411 _0365_
*412 _0366_
*413 _0367_
*414 _0368_
*415 _0369_
*416 _0370_
*417 _0371_
*418 _0372_
*419 _0373_
*420 _0374_
*421 _0375_
*422 _0376_
*423 _0377_
*424 _0378_
*425 _0379_
*426 _0380_
*427 _0381_
*428 _0382_
*429 _0383_
*430 _0384_
*431 _0385_
*432 _0386_
*433 _0387_
*434 _0388_
*435 _0389_
*436 _0390_
*437 _0391_
*438 _0392_
*439 _0393_
*440 _0394_
*441 _0395_
*442 _0396_
*443 _0397_
*444 _0398_
*445 _0399_
*446 _0400_
*447 _0401_
*448 _0402_
*449 _0403_
*450 _0404_
*451 _0405_
*452 _0406_
*453 _0407_
*454 _0408_
*455 _0409_
*456 _0410_
*457 _0411_
*458 _0412_
*459 _0413_
*460 _0414_
*461 _0415_
*462 _0416_
*463 _0417_
*464 _0418_
*465 _0419_
*466 _0420_
*467 _0421_
*468 _0422_
*469 _0423_
*470 _0424_
*471 _0425_
*472 _0426_
*473 _0427_
*474 _0428_
*475 _0429_
*476 _0430_
*477 _0431_
*478 _0432_
*479 _0433_
*480 _0434_
*481 _0435_
*482 _0436_
*483 _0437_
*484 _0438_
*485 _0439_
*486 _0440_
*487 _0441_
*488 _0442_
*489 _0443_
*490 _0444_
*491 _0445_
*492 _0446_
*493 _0447_
*494 _0448_
*495 _0449_
*496 _0450_
*497 _0451_
*498 _0452_
*499 _0453_
*500 _0454_
*501 _0455_
*502 _0456_
*503 _0457_
*504 _0458_
*505 _0459_
*506 _0460_
*507 _0461_
*508 _0462_
*509 _0463_
*510 _0464_
*511 _0465_
*512 _0466_
*513 _0467_
*514 _0468_
*515 _0469_
*516 _0470_
*517 _0471_
*518 _0472_
*519 _0473_
*520 _0474_
*521 _0475_
*522 _0476_
*523 _0477_
*524 _0478_
*525 _0479_
*526 _0480_
*527 _0481_
*528 _0482_
*529 _0483_
*530 _0484_
*531 _0485_
*532 _0486_
*533 _0487_
*534 _0488_
*535 _0489_
*536 _0490_
*537 _0491_
*538 _0492_
*539 _0493_
*540 _0494_
*541 _0495_
*542 _0496_
*543 _0497_
*544 _0498_
*545 _0499_
*546 _0500_
*547 _0501_
*548 _0502_
*549 _0503_
*550 _0504_
*551 _0505_
*552 _0506_
*553 _0507_
*554 _0508_
*555 _0509_
*556 _0510_
*557 _0511_
*558 _0512_
*559 _0513_
*560 _0514_
*561 _0515_
*562 _0516_
*563 _0517_
*564 _0518_
*565 _0519_
*566 _0520_
*567 _0521_
*568 _0522_
*569 _0523_
*570 _0524_
*571 _0525_
*572 _0526_
*573 _0527_
*574 _0528_
*575 _0529_
*576 _0530_
*577 _0531_
*578 _0532_
*579 _0533_
*580 _0534_
*581 _0535_
*582 _0536_
*583 _0537_
*584 _0538_
*585 _0539_
*586 _0540_
*587 _0541_
*588 _0542_
*589 _0543_
*590 _0544_
*591 _0545_
*592 _0546_
*593 _0547_
*594 _0548_
*595 _0549_
*596 _0550_
*597 _0551_
*598 _0552_
*599 _0553_
*600 _0554_
*601 _0555_
*602 _0556_
*603 _0557_
*604 _0558_
*605 _0559_
*606 _0560_
*607 _0561_
*608 _0562_
*609 _0563_
*610 _0564_
*611 _0565_
*612 _0566_
*613 _0567_
*614 _0568_
*615 _0569_
*616 _0570_
*617 _0571_
*618 _0572_
*619 _0573_
*620 _0574_
*621 _0575_
*622 _0576_
*623 _0577_
*624 _0578_
*625 clknet_0_clk
*626 clknet_4_0_0_clk
*627 clknet_4_10_0_clk
*628 clknet_4_11_0_clk
*629 clknet_4_12_0_clk
*630 clknet_4_13_0_clk
*631 clknet_4_14_0_clk
*632 clknet_4_15_0_clk
*633 clknet_4_1_0_clk
*634 clknet_4_2_0_clk
*635 clknet_4_3_0_clk
*636 clknet_4_4_0_clk
*637 clknet_4_5_0_clk
*638 clknet_4_6_0_clk
*639 clknet_4_7_0_clk
*640 clknet_4_8_0_clk
*641 clknet_4_9_0_clk
*642 cnt\[0\]
*643 cnt\[10\]
*644 cnt\[11\]
*645 cnt\[12\]
*646 cnt\[13\]
*647 cnt\[1\]
*648 cnt\[2\]
*649 cnt\[3\]
*650 cnt\[4\]
*651 cnt\[5\]
*652 cnt\[6\]
*653 cnt\[7\]
*654 cnt\[8\]
*655 cnt\[9\]
*656 inputs_candidate\[10\]
*657 inputs_candidate\[11\]
*658 inputs_candidate\[12\]
*659 inputs_candidate\[13\]
*660 inputs_candidate\[14\]
*661 inputs_candidate\[15\]
*662 inputs_candidate\[16\]
*663 inputs_candidate\[17\]
*664 inputs_candidate\[1\]
*665 inputs_candidate\[2\]
*666 inputs_candidate\[3\]
*667 inputs_candidate\[4\]
*668 inputs_candidate\[5\]
*669 inputs_candidate\[6\]
*670 inputs_candidate\[7\]
*671 inputs_candidate\[8\]
*672 inputs_candidate\[9\]
*673 inputs_ff\[0\]
*674 inputs_ff\[10\]
*675 inputs_ff\[11\]
*676 inputs_ff\[12\]
*677 inputs_ff\[13\]
*678 inputs_ff\[14\]
*679 inputs_ff\[15\]
*680 inputs_ff\[16\]
*681 inputs_ff\[17\]
*682 inputs_ff\[1\]
*683 inputs_ff\[2\]
*684 inputs_ff\[3\]
*685 inputs_ff\[4\]
*686 inputs_ff\[5\]
*687 inputs_ff\[6\]
*688 inputs_ff\[7\]
*689 inputs_ff\[8\]
*690 inputs_ff\[9\]
*691 inputs_sync\[0\]
*692 inputs_sync\[10\]
*693 inputs_sync\[11\]
*694 inputs_sync\[12\]
*695 inputs_sync\[13\]
*696 inputs_sync\[14\]
*697 inputs_sync\[15\]
*698 inputs_sync\[16\]
*699 inputs_sync\[17\]
*700 inputs_sync\[1\]
*701 inputs_sync\[2\]
*702 inputs_sync\[3\]
*703 inputs_sync\[4\]
*704 inputs_sync\[5\]
*705 inputs_sync\[6\]
*706 inputs_sync\[7\]
*707 inputs_sync\[8\]
*708 inputs_sync\[9\]
*709 my_design\.DEBUG_SIGS_GTKWAVE\.\@0\$slideswitch\[0\]
*710 my_design\.DEBUG_SIGS_GTKWAVE\.\@0\$slideswitch\[1\]
*711 my_design\.DEBUG_SIGS_GTKWAVE\.\@0\$slideswitch\[2\]
*712 my_design\.DEBUG_SIGS_GTKWAVE\.\@0\$slideswitch\[3\]
*713 my_design\.DEBUG_SIGS_GTKWAVE\.\@0\$slideswitch\[4\]
*714 my_design\.DEBUG_SIGS_GTKWAVE\.\@0\$slideswitch\[5\]
*715 my_design\.DEBUG_SIGS_GTKWAVE\.\@0\$slideswitch\[6\]
*716 my_design\.DEBUG_SIGS_GTKWAVE\.\@0\$slideswitch\[7\]
*717 my_design\.DEBUG_SIGS_GTKWAVE\.\@0\$sseg_decimal_point_n
*718 my_design\.DEBUG_SIGS_GTKWAVE\.\@0\$sseg_segment_n\[0\]
*719 my_design\.DEBUG_SIGS_GTKWAVE\.\@0\$sseg_segment_n\[1\]
*720 my_design\.DEBUG_SIGS_GTKWAVE\.\@0\$sseg_segment_n\[2\]
*721 my_design\.DEBUG_SIGS_GTKWAVE\.\@0\$sseg_segment_n\[3\]
*722 my_design\.DEBUG_SIGS_GTKWAVE\.\@0\$sseg_segment_n\[4\]
*723 my_design\.DEBUG_SIGS_GTKWAVE\.\@0\$sseg_segment_n\[5\]
*724 my_design\.DEBUG_SIGS_GTKWAVE\.\@0\$sseg_segment_n\[6\]
*725 my_design\.DEBUG_SIGS_GTKWAVE\.\/digit\[0\]\.\/leds\[0\]\.\/\/\@0\$viz_lit
*726 my_design\.DEBUG_SIGS_GTKWAVE\.\/digit\[0\]\.\/leds\[1\]\.\/\/\@0\$viz_lit
*727 my_design\.DEBUG_SIGS_GTKWAVE\.\/digit\[0\]\.\/leds\[2\]\.\/\/\@0\$viz_lit
*728 my_design\.DEBUG_SIGS_GTKWAVE\.\/digit\[0\]\.\/leds\[3\]\.\/\/\@0\$viz_lit
*729 my_design\.DEBUG_SIGS_GTKWAVE\.\/digit\[0\]\.\/leds\[4\]\.\/\/\@0\$viz_lit
*730 my_design\.DEBUG_SIGS_GTKWAVE\.\/digit\[0\]\.\/leds\[5\]\.\/\/\@0\$viz_lit
*731 my_design\.DEBUG_SIGS_GTKWAVE\.\/digit\[0\]\.\/leds\[6\]\.\/\/\@0\$viz_lit
*732 my_design\.DEBUG_SIGS_GTKWAVE\.\/digit\[0\]\.\/leds\[7\]\.\/\/\@0\$viz_lit
*733 my_design\.DEBUG_SIGS_GTKWAVE\.\/fpga_pins\.\/fpga\.P_project\.\/\/\/\@0\$button_num\[0\]
*734 my_design\.DEBUG_SIGS_GTKWAVE\.\/fpga_pins\.\/fpga\.P_project\.\/\/\/\@0\$button_num\[1\]
*735 my_design\.DEBUG_SIGS_GTKWAVE\.\/fpga_pins\.\/fpga\.P_project\.\/\/\/\@0\$button_num\[2\]
*736 my_design\.DEBUG_SIGS_GTKWAVE\.\/fpga_pins\.\/fpga\.P_project\.\/\/\/\@0\$button_num\[3\]
*737 my_design\.DEBUG_SIGS_GTKWAVE\.\/fpga_pins\.\/fpga\.P_project\.\/\/\/\@0\$button_num\[4\]
*738 my_design\.DEBUG_SIGS_GTKWAVE\.\/fpga_pins\.\/fpga\.P_project\.\/\/\/\@0\$button_num\[5\]
*739 my_design\.DEBUG_SIGS_GTKWAVE\.\/fpga_pins\.\/fpga\.P_project\.\/\/\/\@0\$button_num\[6\]
*740 my_design\.DEBUG_SIGS_GTKWAVE\.\/fpga_pins\.\/fpga\.P_project\.\/\/\/\@0\$button_ones\[0\]
*741 my_design\.DEBUG_SIGS_GTKWAVE\.\/fpga_pins\.\/fpga\.P_project\.\/\/\/\@0\$button_ones\[1\]
*742 my_design\.DEBUG_SIGS_GTKWAVE\.\/fpga_pins\.\/fpga\.P_project\.\/\/\/\@0\$button_ones\[2\]
*743 my_design\.DEBUG_SIGS_GTKWAVE\.\/fpga_pins\.\/fpga\.P_project\.\/\/\/\@0\$button_ones\[3\]
*744 my_design\.DEBUG_SIGS_GTKWAVE\.\/fpga_pins\.\/fpga\.P_project\.\/\/\/\@0\$button_ones\[4\]
*745 my_design\.DEBUG_SIGS_GTKWAVE\.\/fpga_pins\.\/fpga\.P_project\.\/\/\/\@0\$button_ones_temp\[0\]
*746 my_design\.DEBUG_SIGS_GTKWAVE\.\/fpga_pins\.\/fpga\.P_project\.\/\/\/\@0\$button_ones_temp\[1\]
*747 my_design\.DEBUG_SIGS_GTKWAVE\.\/fpga_pins\.\/fpga\.P_project\.\/\/\/\@0\$button_ones_temp\[2\]
*748 my_design\.DEBUG_SIGS_GTKWAVE\.\/fpga_pins\.\/fpga\.P_project\.\/\/\/\@0\$button_ones_temp\[3\]
*749 my_design\.DEBUG_SIGS_GTKWAVE\.\/fpga_pins\.\/fpga\.P_project\.\/\/\/\@0\$button_press
*750 my_design\.DEBUG_SIGS_GTKWAVE\.\/fpga_pins\.\/fpga\.P_project\.\/\/\/\@0\$button_tens\[0\]
*751 my_design\.DEBUG_SIGS_GTKWAVE\.\/fpga_pins\.\/fpga\.P_project\.\/\/\/\@0\$button_tens\[1\]
*752 my_design\.DEBUG_SIGS_GTKWAVE\.\/fpga_pins\.\/fpga\.P_project\.\/\/\/\@0\$button_tens\[2\]
*753 my_design\.DEBUG_SIGS_GTKWAVE\.\/fpga_pins\.\/fpga\.P_project\.\/\/\/\@0\$button_tens\[3\]
*754 my_design\.DEBUG_SIGS_GTKWAVE\.\/fpga_pins\.\/fpga\.P_project\.\/\/\/\@0\$button_tens\[4\]
*755 my_design\.DEBUG_SIGS_GTKWAVE\.\/fpga_pins\.\/fpga\.P_project\.\/\/\/\@0\$button_tens_temp\[0\]
*756 my_design\.DEBUG_SIGS_GTKWAVE\.\/fpga_pins\.\/fpga\.P_project\.\/\/\/\@0\$button_tens_temp\[1\]
*757 my_design\.DEBUG_SIGS_GTKWAVE\.\/fpga_pins\.\/fpga\.P_project\.\/\/\/\@0\$button_tens_temp\[2\]
*758 my_design\.DEBUG_SIGS_GTKWAVE\.\/fpga_pins\.\/fpga\.P_project\.\/\/\/\@0\$button_tens_temp\[3\]
*759 my_design\.DEBUG_SIGS_GTKWAVE\.\/fpga_pins\.\/fpga\.P_project\.\/\/\/\@0\$counter\[0\]
*760 my_design\.DEBUG_SIGS_GTKWAVE\.\/fpga_pins\.\/fpga\.P_project\.\/\/\/\@0\$counter\[10\]
*761 my_design\.DEBUG_SIGS_GTKWAVE\.\/fpga_pins\.\/fpga\.P_project\.\/\/\/\@0\$counter\[11\]
*762 my_design\.DEBUG_SIGS_GTKWAVE\.\/fpga_pins\.\/fpga\.P_project\.\/\/\/\@0\$counter\[12\]
*763 my_design\.DEBUG_SIGS_GTKWAVE\.\/fpga_pins\.\/fpga\.P_project\.\/\/\/\@0\$counter\[13\]
*764 my_design\.DEBUG_SIGS_GTKWAVE\.\/fpga_pins\.\/fpga\.P_project\.\/\/\/\@0\$counter\[14\]
*765 my_design\.DEBUG_SIGS_GTKWAVE\.\/fpga_pins\.\/fpga\.P_project\.\/\/\/\@0\$counter\[15\]
*766 my_design\.DEBUG_SIGS_GTKWAVE\.\/fpga_pins\.\/fpga\.P_project\.\/\/\/\@0\$counter\[16\]
*767 my_design\.DEBUG_SIGS_GTKWAVE\.\/fpga_pins\.\/fpga\.P_project\.\/\/\/\@0\$counter\[17\]
*768 my_design\.DEBUG_SIGS_GTKWAVE\.\/fpga_pins\.\/fpga\.P_project\.\/\/\/\@0\$counter\[18\]
*769 my_design\.DEBUG_SIGS_GTKWAVE\.\/fpga_pins\.\/fpga\.P_project\.\/\/\/\@0\$counter\[19\]
*770 my_design\.DEBUG_SIGS_GTKWAVE\.\/fpga_pins\.\/fpga\.P_project\.\/\/\/\@0\$counter\[1\]
*771 my_design\.DEBUG_SIGS_GTKWAVE\.\/fpga_pins\.\/fpga\.P_project\.\/\/\/\@0\$counter\[20\]
*772 my_design\.DEBUG_SIGS_GTKWAVE\.\/fpga_pins\.\/fpga\.P_project\.\/\/\/\@0\$counter\[21\]
*773 my_design\.DEBUG_SIGS_GTKWAVE\.\/fpga_pins\.\/fpga\.P_project\.\/\/\/\@0\$counter\[22\]
*774 my_design\.DEBUG_SIGS_GTKWAVE\.\/fpga_pins\.\/fpga\.P_project\.\/\/\/\@0\$counter\[23\]
*775 my_design\.DEBUG_SIGS_GTKWAVE\.\/fpga_pins\.\/fpga\.P_project\.\/\/\/\@0\$counter\[24\]
*776 my_design\.DEBUG_SIGS_GTKWAVE\.\/fpga_pins\.\/fpga\.P_project\.\/\/\/\@0\$counter\[25\]
*777 my_design\.DEBUG_SIGS_GTKWAVE\.\/fpga_pins\.\/fpga\.P_project\.\/\/\/\@0\$counter\[26\]
*778 my_design\.DEBUG_SIGS_GTKWAVE\.\/fpga_pins\.\/fpga\.P_project\.\/\/\/\@0\$counter\[27\]
*779 my_design\.DEBUG_SIGS_GTKWAVE\.\/fpga_pins\.\/fpga\.P_project\.\/\/\/\@0\$counter\[28\]
*780 my_design\.DEBUG_SIGS_GTKWAVE\.\/fpga_pins\.\/fpga\.P_project\.\/\/\/\@0\$counter\[29\]
*781 my_design\.DEBUG_SIGS_GTKWAVE\.\/fpga_pins\.\/fpga\.P_project\.\/\/\/\@0\$counter\[2\]
*782 my_design\.DEBUG_SIGS_GTKWAVE\.\/fpga_pins\.\/fpga\.P_project\.\/\/\/\@0\$counter\[30\]
*783 my_design\.DEBUG_SIGS_GTKWAVE\.\/fpga_pins\.\/fpga\.P_project\.\/\/\/\@0\$counter\[31\]
*784 my_design\.DEBUG_SIGS_GTKWAVE\.\/fpga_pins\.\/fpga\.P_project\.\/\/\/\@0\$counter\[3\]
*785 my_design\.DEBUG_SIGS_GTKWAVE\.\/fpga_pins\.\/fpga\.P_project\.\/\/\/\@0\$counter\[4\]
*786 my_design\.DEBUG_SIGS_GTKWAVE\.\/fpga_pins\.\/fpga\.P_project\.\/\/\/\@0\$counter\[5\]
*787 my_design\.DEBUG_SIGS_GTKWAVE\.\/fpga_pins\.\/fpga\.P_project\.\/\/\/\@0\$counter\[6\]
*788 my_design\.DEBUG_SIGS_GTKWAVE\.\/fpga_pins\.\/fpga\.P_project\.\/\/\/\@0\$counter\[7\]
*789 my_design\.DEBUG_SIGS_GTKWAVE\.\/fpga_pins\.\/fpga\.P_project\.\/\/\/\@0\$counter\[8\]
*790 my_design\.DEBUG_SIGS_GTKWAVE\.\/fpga_pins\.\/fpga\.P_project\.\/\/\/\@0\$counter\[9\]
*791 my_design\.DEBUG_SIGS_GTKWAVE\.\/fpga_pins\.\/fpga\.P_project\.\/\/\/\@0\$counter_overflow
*792 my_design\.DEBUG_SIGS_GTKWAVE\.\/fpga_pins\.\/fpga\.P_project\.\/\/\/\@0\$die_ones\[0\]
*793 my_design\.DEBUG_SIGS_GTKWAVE\.\/fpga_pins\.\/fpga\.P_project\.\/\/\/\@0\$die_ones\[1\]
*794 my_design\.DEBUG_SIGS_GTKWAVE\.\/fpga_pins\.\/fpga\.P_project\.\/\/\/\@0\$die_ones\[2\]
*795 my_design\.DEBUG_SIGS_GTKWAVE\.\/fpga_pins\.\/fpga\.P_project\.\/\/\/\@0\$die_ones\[3\]
*796 my_design\.DEBUG_SIGS_GTKWAVE\.\/fpga_pins\.\/fpga\.P_project\.\/\/\/\@0\$die_ones_temp\[0\]
*797 my_design\.DEBUG_SIGS_GTKWAVE\.\/fpga_pins\.\/fpga\.P_project\.\/\/\/\@0\$die_ones_temp\[1\]
*798 my_design\.DEBUG_SIGS_GTKWAVE\.\/fpga_pins\.\/fpga\.P_project\.\/\/\/\@0\$die_ones_temp\[2\]
*799 my_design\.DEBUG_SIGS_GTKWAVE\.\/fpga_pins\.\/fpga\.P_project\.\/\/\/\@0\$die_ones_temp\[3\]
*800 my_design\.DEBUG_SIGS_GTKWAVE\.\/fpga_pins\.\/fpga\.P_project\.\/\/\/\@0\$die_ones_temp\[4\]
*801 my_design\.DEBUG_SIGS_GTKWAVE\.\/fpga_pins\.\/fpga\.P_project\.\/\/\/\@0\$die_ones_temp\[5\]
*802 my_design\.DEBUG_SIGS_GTKWAVE\.\/fpga_pins\.\/fpga\.P_project\.\/\/\/\@0\$die_ones_temp\[6\]
*803 my_design\.DEBUG_SIGS_GTKWAVE\.\/fpga_pins\.\/fpga\.P_project\.\/\/\/\@0\$die_size\[0\]
*804 my_design\.DEBUG_SIGS_GTKWAVE\.\/fpga_pins\.\/fpga\.P_project\.\/\/\/\@0\$die_size\[1\]
*805 my_design\.DEBUG_SIGS_GTKWAVE\.\/fpga_pins\.\/fpga\.P_project\.\/\/\/\@0\$die_size\[2\]
*806 my_design\.DEBUG_SIGS_GTKWAVE\.\/fpga_pins\.\/fpga\.P_project\.\/\/\/\@0\$die_size\[3\]
*807 my_design\.DEBUG_SIGS_GTKWAVE\.\/fpga_pins\.\/fpga\.P_project\.\/\/\/\@0\$die_size\[4\]
*808 my_design\.DEBUG_SIGS_GTKWAVE\.\/fpga_pins\.\/fpga\.P_project\.\/\/\/\@0\$die_size\[5\]
*809 my_design\.DEBUG_SIGS_GTKWAVE\.\/fpga_pins\.\/fpga\.P_project\.\/\/\/\@0\$die_size\[6\]
*810 my_design\.DEBUG_SIGS_GTKWAVE\.\/fpga_pins\.\/fpga\.P_project\.\/\/\/\@0\$die_tens\[0\]
*811 my_design\.DEBUG_SIGS_GTKWAVE\.\/fpga_pins\.\/fpga\.P_project\.\/\/\/\@0\$die_tens\[1\]
*812 my_design\.DEBUG_SIGS_GTKWAVE\.\/fpga_pins\.\/fpga\.P_project\.\/\/\/\@0\$die_tens\[2\]
*813 my_design\.DEBUG_SIGS_GTKWAVE\.\/fpga_pins\.\/fpga\.P_project\.\/\/\/\@0\$die_tens\[3\]
*814 my_design\.DEBUG_SIGS_GTKWAVE\.\/fpga_pins\.\/fpga\.P_project\.\/\/\/\@0\$die_tens\[4\]
*815 my_design\.DEBUG_SIGS_GTKWAVE\.\/fpga_pins\.\/fpga\.P_project\.\/\/\/\@0\$die_tens_temp\[0\]
*816 my_design\.DEBUG_SIGS_GTKWAVE\.\/fpga_pins\.\/fpga\.P_project\.\/\/\/\@0\$die_tens_temp\[1\]
*817 my_design\.DEBUG_SIGS_GTKWAVE\.\/fpga_pins\.\/fpga\.P_project\.\/\/\/\@0\$die_tens_temp\[2\]
*818 my_design\.DEBUG_SIGS_GTKWAVE\.\/fpga_pins\.\/fpga\.P_project\.\/\/\/\@0\$die_tens_temp\[3\]
*819 my_design\.DEBUG_SIGS_GTKWAVE\.\/fpga_pins\.\/fpga\.P_project\.\/\/\/\@0\$out\[0\]
*820 my_design\.DEBUG_SIGS_GTKWAVE\.\/fpga_pins\.\/fpga\.P_project\.\/\/\/\@0\$out\[1\]
*821 my_design\.DEBUG_SIGS_GTKWAVE\.\/fpga_pins\.\/fpga\.P_project\.\/\/\/\@0\$out\[2\]
*822 my_design\.DEBUG_SIGS_GTKWAVE\.\/fpga_pins\.\/fpga\.P_project\.\/\/\/\@0\$out\[3\]
*823 my_design\.DEBUG_SIGS_GTKWAVE\.\/fpga_pins\.\/fpga\.P_project\.\/\/\/\@0\$out\[4\]
*824 my_design\.DEBUG_SIGS_GTKWAVE\.\/fpga_pins\.\/fpga\.P_project\.\/\/\/\@0\$output\[0\]
*825 my_design\.DEBUG_SIGS_GTKWAVE\.\/fpga_pins\.\/fpga\.P_project\.\/\/\/\@0\$output\[1\]
*826 my_design\.DEBUG_SIGS_GTKWAVE\.\/fpga_pins\.\/fpga\.P_project\.\/\/\/\@0\$output\[2\]
*827 my_design\.DEBUG_SIGS_GTKWAVE\.\/fpga_pins\.\/fpga\.P_project\.\/\/\/\@0\$output\[3\]
*828 my_design\.DEBUG_SIGS_GTKWAVE\.\/fpga_pins\.\/fpga\.P_project\.\/\/\/\@0\$output\[4\]
*829 my_design\.DEBUG_SIGS_GTKWAVE\.\/fpga_pins\.\/fpga\.P_project\.\/\/\/\@0\$output\[5\]
*830 my_design\.DEBUG_SIGS_GTKWAVE\.\/fpga_pins\.\/fpga\.P_project\.\/\/\/\@0\$output\[6\]
*831 my_design\.DEBUG_SIGS_GTKWAVE\.\/fpga_pins\.\/fpga\.P_project\.\/\/\/\@0\$output_switch\[0\]
*832 my_design\.DEBUG_SIGS_GTKWAVE\.\/fpga_pins\.\/fpga\.P_project\.\/\/\/\@0\$output_switch\[1\]
*833 my_design\.DEBUG_SIGS_GTKWAVE\.\/fpga_pins\.\/fpga\.P_project\.\/\/\/\@0\$output_switch\[2\]
*834 my_design\.DEBUG_SIGS_GTKWAVE\.\/fpga_pins\.\/fpga\.P_project\.\/\/\/\@0\$output_switch\[3\]
*835 my_design\.DEBUG_SIGS_GTKWAVE\.\/fpga_pins\.\/fpga\.P_project\.\/\/\/\@0\$output_switch\[4\]
*836 my_design\.DEBUG_SIGS_GTKWAVE\.\/fpga_pins\.\/fpga\.P_project\.\/\/\/\@0\$output_switch\[5\]
*837 my_design\.DEBUG_SIGS_GTKWAVE\.\/fpga_pins\.\/fpga\.P_project\.\/\/\/\@0\$output_switch\[6\]
*838 my_design\.DEBUG_SIGS_GTKWAVE\.\/fpga_pins\.\/fpga\.P_project\.\/\/\/\@0\$output_switch\[7\]
*839 my_design\.DEBUG_SIGS_GTKWAVE\.\/fpga_pins\.\/fpga\.P_project\.\/\/\/\@0\$rand_num\[0\]
*840 my_design\.DEBUG_SIGS_GTKWAVE\.\/fpga_pins\.\/fpga\.P_project\.\/\/\/\@0\$rand_num\[1\]
*841 my_design\.DEBUG_SIGS_GTKWAVE\.\/fpga_pins\.\/fpga\.P_project\.\/\/\/\@0\$rand_num\[2\]
*842 my_design\.DEBUG_SIGS_GTKWAVE\.\/fpga_pins\.\/fpga\.P_project\.\/\/\/\@0\$rand_num\[3\]
*843 my_design\.DEBUG_SIGS_GTKWAVE\.\/fpga_pins\.\/fpga\.P_project\.\/\/\/\@0\$rand_num\[4\]
*844 my_design\.DEBUG_SIGS_GTKWAVE\.\/fpga_pins\.\/fpga\.P_project\.\/\/\/\@0\$rand_num\[5\]
*845 my_design\.DEBUG_SIGS_GTKWAVE\.\/fpga_pins\.\/fpga\.P_project\.\/\/\/\@0\$rand_num\[6\]
*846 my_design\.DEBUG_SIGS_GTKWAVE\.\/switch\[0\]\.\/\@0\$viz_switch
*847 my_design\.DEBUG_SIGS_GTKWAVE\.\/switch\[1\]\.\/\@0\$viz_switch
*848 my_design\.DEBUG_SIGS_GTKWAVE\.\/switch\[2\]\.\/\@0\$viz_switch
*849 my_design\.DEBUG_SIGS_GTKWAVE\.\/switch\[3\]\.\/\@0\$viz_switch
*850 my_design\.DEBUG_SIGS_GTKWAVE\.\/switch\[4\]\.\/\@0\$viz_switch
*851 my_design\.DEBUG_SIGS_GTKWAVE\.\/switch\[5\]\.\/\@0\$viz_switch
*852 my_design\.DEBUG_SIGS_GTKWAVE\.\/switch\[6\]\.\/\@0\$viz_switch
*853 my_design\.DEBUG_SIGS_GTKWAVE\.\/switch\[7\]\.\/\@0\$viz_switch
*854 my_design\.FpgaPins_Fpga_PROJECT_button_num_a1\[0\]
*855 my_design\.FpgaPins_Fpga_PROJECT_button_num_a1\[1\]
*856 my_design\.FpgaPins_Fpga_PROJECT_button_num_a1\[2\]
*857 my_design\.FpgaPins_Fpga_PROJECT_button_num_a1\[3\]
*858 my_design\.FpgaPins_Fpga_PROJECT_button_num_a1\[4\]
*859 my_design\.FpgaPins_Fpga_PROJECT_button_num_a1\[5\]
*860 my_design\.FpgaPins_Fpga_PROJECT_button_num_a1\[6\]
*861 my_design\.FpgaPins_Fpga_PROJECT_button_press_a1
*862 my_design\.FpgaPins_Fpga_PROJECT_counter_a1\[0\]
*863 my_design\.FpgaPins_Fpga_PROJECT_counter_a1\[10\]
*864 my_design\.FpgaPins_Fpga_PROJECT_counter_a1\[11\]
*865 my_design\.FpgaPins_Fpga_PROJECT_counter_a1\[12\]
*866 my_design\.FpgaPins_Fpga_PROJECT_counter_a1\[13\]
*867 my_design\.FpgaPins_Fpga_PROJECT_counter_a1\[14\]
*868 my_design\.FpgaPins_Fpga_PROJECT_counter_a1\[15\]
*869 my_design\.FpgaPins_Fpga_PROJECT_counter_a1\[16\]
*870 my_design\.FpgaPins_Fpga_PROJECT_counter_a1\[17\]
*871 my_design\.FpgaPins_Fpga_PROJECT_counter_a1\[18\]
*872 my_design\.FpgaPins_Fpga_PROJECT_counter_a1\[19\]
*873 my_design\.FpgaPins_Fpga_PROJECT_counter_a1\[1\]
*874 my_design\.FpgaPins_Fpga_PROJECT_counter_a1\[20\]
*875 my_design\.FpgaPins_Fpga_PROJECT_counter_a1\[21\]
*876 my_design\.FpgaPins_Fpga_PROJECT_counter_a1\[22\]
*877 my_design\.FpgaPins_Fpga_PROJECT_counter_a1\[23\]
*878 my_design\.FpgaPins_Fpga_PROJECT_counter_a1\[24\]
*879 my_design\.FpgaPins_Fpga_PROJECT_counter_a1\[25\]
*880 my_design\.FpgaPins_Fpga_PROJECT_counter_a1\[26\]
*881 my_design\.FpgaPins_Fpga_PROJECT_counter_a1\[27\]
*882 my_design\.FpgaPins_Fpga_PROJECT_counter_a1\[28\]
*883 my_design\.FpgaPins_Fpga_PROJECT_counter_a1\[29\]
*884 my_design\.FpgaPins_Fpga_PROJECT_counter_a1\[2\]
*885 my_design\.FpgaPins_Fpga_PROJECT_counter_a1\[30\]
*886 my_design\.FpgaPins_Fpga_PROJECT_counter_a1\[31\]
*887 my_design\.FpgaPins_Fpga_PROJECT_counter_a1\[3\]
*888 my_design\.FpgaPins_Fpga_PROJECT_counter_a1\[4\]
*889 my_design\.FpgaPins_Fpga_PROJECT_counter_a1\[5\]
*890 my_design\.FpgaPins_Fpga_PROJECT_counter_a1\[6\]
*891 my_design\.FpgaPins_Fpga_PROJECT_counter_a1\[7\]
*892 my_design\.FpgaPins_Fpga_PROJECT_counter_a1\[8\]
*893 my_design\.FpgaPins_Fpga_PROJECT_counter_a1\[9\]
*894 my_design\.FpgaPins_Fpga_PROJECT_counter_overflow_a1
*895 my_design\.FpgaPins_Fpga_PROJECT_output_switch_a1\[0\]
*896 my_design\.FpgaPins_Fpga_PROJECT_output_switch_a1\[1\]
*897 my_design\.FpgaPins_Fpga_PROJECT_output_switch_a1\[2\]
*898 my_design\.FpgaPins_Fpga_PROJECT_output_switch_a1\[3\]
*899 my_design\.FpgaPins_Fpga_PROJECT_output_switch_a1\[4\]
*900 my_design\.FpgaPins_Fpga_PROJECT_output_switch_a1\[5\]
*901 my_design\.FpgaPins_Fpga_PROJECT_output_switch_a1\[6\]
*902 my_design\.FpgaPins_Fpga_PROJECT_output_switch_a1\[7\]
*903 my_design\.FpgaPins_Fpga_PROJECT_rand_num_a1\[0\]
*904 my_design\.FpgaPins_Fpga_PROJECT_rand_num_a1\[1\]
*905 my_design\.FpgaPins_Fpga_PROJECT_rand_num_a1\[2\]
*906 my_design\.FpgaPins_Fpga_PROJECT_rand_num_a1\[3\]
*907 my_design\.FpgaPins_Fpga_PROJECT_rand_num_a1\[4\]
*908 my_design\.FpgaPins_Fpga_PROJECT_rand_num_a1\[5\]
*909 my_design\.FpgaPins_Fpga_PROJECT_rand_num_a1\[6\]
*910 net1
*911 net10
*912 net100
*913 net101
*914 net102
*915 net103
*916 net104
*917 net105
*918 net106
*919 net107
*920 net108
*921 net109
*922 net11
*923 net110
*924 net111
*925 net112
*926 net113
*927 net114
*928 net115
*929 net116
*930 net117
*931 net118
*932 net119
*933 net12
*934 net120
*935 net121
*936 net122
*937 net13
*938 net14
*939 net15
*940 net16
*941 net17
*942 net18
*943 net19
*944 net2
*945 net3
*946 net36
*947 net37
*948 net38
*949 net39
*950 net4
*951 net40
*952 net41
*953 net42
*954 net43
*955 net44
*956 net45
*957 net46
*958 net47
*959 net48
*960 net49
*961 net5
*962 net50
*963 net51
*964 net52
*965 net53
*966 net54
*967 net55
*968 net56
*969 net57
*970 net58
*971 net59
*972 net6
*973 net60
*974 net61
*975 net62
*976 net63
*977 net64
*978 net65
*979 net66
*980 net67
*981 net68
*982 net69
*983 net7
*984 net70
*985 net71
*986 net72
*987 net73
*988 net74
*989 net75
*990 net76
*991 net77
*992 net78
*993 net79
*994 net8
*995 net80
*996 net81
*997 net82
*998 net83
*999 net84
*1000 net85
*1001 net86
*1002 net87
*1003 net88
*1004 net89
*1005 net9
*1006 net90
*1007 net91
*1008 net92
*1009 net93
*1010 net94
*1011 net95
*1012 net96
*1013 net97
*1014 net98
*1015 net99
*1016 FILLER_0_0_109
*1017 FILLER_0_0_113
*1018 FILLER_0_0_125
*1019 FILLER_0_0_137
*1020 FILLER_0_0_141
*1021 FILLER_0_0_15
*1022 FILLER_0_0_153
*1023 FILLER_0_0_165
*1024 FILLER_0_0_169
*1025 FILLER_0_0_181
*1026 FILLER_0_0_193
*1027 FILLER_0_0_197
*1028 FILLER_0_0_209
*1029 FILLER_0_0_221
*1030 FILLER_0_0_225
*1031 FILLER_0_0_237
*1032 FILLER_0_0_249
*1033 FILLER_0_0_253
*1034 FILLER_0_0_265
*1035 FILLER_0_0_27
*1036 FILLER_0_0_277
*1037 FILLER_0_0_281
*1038 FILLER_0_0_29
*1039 FILLER_0_0_293
*1040 FILLER_0_0_3
*1041 FILLER_0_0_305
*1042 FILLER_0_0_309
*1043 FILLER_0_0_321
*1044 FILLER_0_0_333
*1045 FILLER_0_0_41
*1046 FILLER_0_0_53
*1047 FILLER_0_0_57
*1048 FILLER_0_0_69
*1049 FILLER_0_0_81
*1050 FILLER_0_0_85
*1051 FILLER_0_0_97
*1052 FILLER_0_10_110
*1053 FILLER_0_10_119
*1054 FILLER_0_10_127
*1055 FILLER_0_10_132
*1056 FILLER_0_10_141
*1057 FILLER_0_10_167
*1058 FILLER_0_10_176
*1059 FILLER_0_10_19
*1060 FILLER_0_10_197
*1061 FILLER_0_10_217
*1062 FILLER_0_10_261
*1063 FILLER_0_10_27
*1064 FILLER_0_10_279
*1065 FILLER_0_10_291
*1066 FILLER_0_10_305
*1067 FILLER_0_10_319
*1068 FILLER_0_10_32
*1069 FILLER_0_10_333
*1070 FILLER_0_10_44
*1071 FILLER_0_10_56
*1072 FILLER_0_10_64
*1073 FILLER_0_10_68
*1074 FILLER_0_10_80
*1075 FILLER_0_10_95
*1076 FILLER_0_11_104
*1077 FILLER_0_11_120
*1078 FILLER_0_11_142
*1079 FILLER_0_11_146
*1080 FILLER_0_11_15
*1081 FILLER_0_11_166
*1082 FILLER_0_11_169
*1083 FILLER_0_11_198
*1084 FILLER_0_11_210
*1085 FILLER_0_11_221
*1086 FILLER_0_11_233
*1087 FILLER_0_11_245
*1088 FILLER_0_11_253
*1089 FILLER_0_11_257
*1090 FILLER_0_11_261
*1091 FILLER_0_11_265
*1092 FILLER_0_11_274
*1093 FILLER_0_11_281
*1094 FILLER_0_11_3
*1095 FILLER_0_11_307
*1096 FILLER_0_11_327
*1097 FILLER_0_11_36
*1098 FILLER_0_11_48
*1099 FILLER_0_11_57
*1100 FILLER_0_11_72
*1101 FILLER_0_11_84
*1102 FILLER_0_11_88
*1103 FILLER_0_11_96
*1104 FILLER_0_12_108
*1105 FILLER_0_12_112
*1106 FILLER_0_12_122
*1107 FILLER_0_12_137
*1108 FILLER_0_12_141
*1109 FILLER_0_12_147
*1110 FILLER_0_12_151
*1111 FILLER_0_12_159
*1112 FILLER_0_12_166
*1113 FILLER_0_12_178
*1114 FILLER_0_12_185
*1115 FILLER_0_12_193
*1116 FILLER_0_12_197
*1117 FILLER_0_12_204
*1118 FILLER_0_12_212
*1119 FILLER_0_12_221
*1120 FILLER_0_12_227
*1121 FILLER_0_12_23
*1122 FILLER_0_12_239
*1123 FILLER_0_12_253
*1124 FILLER_0_12_27
*1125 FILLER_0_12_272
*1126 FILLER_0_12_281
*1127 FILLER_0_12_289
*1128 FILLER_0_12_29
*1129 FILLER_0_12_3
*1130 FILLER_0_12_309
*1131 FILLER_0_12_317
*1132 FILLER_0_12_38
*1133 FILLER_0_12_42
*1134 FILLER_0_12_47
*1135 FILLER_0_12_51
*1136 FILLER_0_12_67
*1137 FILLER_0_12_71
*1138 FILLER_0_12_85
*1139 FILLER_0_12_89
*1140 FILLER_0_12_96
*1141 FILLER_0_13_104
*1142 FILLER_0_13_113
*1143 FILLER_0_13_127
*1144 FILLER_0_13_139
*1145 FILLER_0_13_15
*1146 FILLER_0_13_156
*1147 FILLER_0_13_164
*1148 FILLER_0_13_180
*1149 FILLER_0_13_192
*1150 FILLER_0_13_221
*1151 FILLER_0_13_263
*1152 FILLER_0_13_281
*1153 FILLER_0_13_298
*1154 FILLER_0_13_3
*1155 FILLER_0_13_310
*1156 FILLER_0_13_314
*1157 FILLER_0_13_318
*1158 FILLER_0_13_330
*1159 FILLER_0_13_334
*1160 FILLER_0_13_53
*1161 FILLER_0_13_67
*1162 FILLER_0_13_79
*1163 FILLER_0_13_91
*1164 FILLER_0_14_113
*1165 FILLER_0_14_119
*1166 FILLER_0_14_123
*1167 FILLER_0_14_131
*1168 FILLER_0_14_139
*1169 FILLER_0_14_144
*1170 FILLER_0_14_15