*SPEF "ieee 1481-1999"
*DESIGN "tt_um_BoothMulti_hhrb98"
*DATE "03:14:05 Friday April 19, 2024"
*VENDOR "The OpenROAD Project"
*PROGRAM "OpenROAD"
*VERSION "0889970d1790a2617e69f253221b8bd7626e51dc"
*DESIGN_FLOW "NAME_SCOPE LOCAL" "PIN_CAP NONE"
*DIVIDER /
*DELIMITER :
*BUS_DELIMITER []
*T_UNIT 1 NS
*C_UNIT 1 PF
*R_UNIT 1 OHM
*L_UNIT 1 HENRY

*NAME_MAP
*3 clk
*4 ena
*5 rst_n
*6 ui_in[0]
*7 ui_in[1]
*8 ui_in[2]
*9 ui_in[3]
*10 ui_in[4]
*11 ui_in[5]
*12 ui_in[6]
*13 ui_in[7]
*14 uio_in[0]
*15 uio_in[1]
*16 uio_in[2]
*17 uio_in[3]
*18 uio_in[4]
*19 uio_in[5]
*20 uio_in[6]
*21 uio_in[7]
*22 uio_oe[0]
*23 net12
*24 net13
*25 net14
*26 net15
*27 net16
*28 net17
*29 net18
*30 uio_out[0]
*31 uio_out[1]
*32 uio_out[2]
*33 uio_out[3]
*34 uio_out[4]
*35 uio_out[5]
*36 uio_out[6]
*37 net10
*38 uo_out[0]
*39 uo_out[1]
*40 uo_out[2]
*41 uo_out[3]
*42 uo_out[4]
*43 uo_out[5]
*44 uo_out[6]
*45 uo_out[7]
*46 _000_
*47 _001_
*48 _002_
*49 _003_
*50 _004_
*51 _005_
*52 _006_
*53 _007_
*54 _008_
*55 _009_
*56 _010_
*57 _011_
*58 _012_
*59 _013_
*60 _014_
*61 _015_
*62 _016_
*63 _017_
*64 _018_
*65 _019_
*66 _020_
*67 _021_
*68 _022_
*69 _023_
*70 _024_
*71 _025_
*72 _026_
*73 _027_
*74 _028_
*75 _029_
*76 _030_
*77 _031_
*78 _032_
*79 _033_
*80 _034_
*81 _035_
*82 _036_
*83 _037_
*84 _038_
*85 _039_
*86 _040_
*87 _041_
*88 _042_
*89 _043_
*90 _044_
*91 _045_
*92 _046_
*93 _047_
*94 _048_
*95 _049_
*96 _050_
*97 _051_
*98 _052_
*99 _053_
*100 _054_
*101 _055_
*102 _056_
*103 _057_
*104 _058_
*105 _059_
*106 _060_
*107 _061_
*108 _062_
*109 _063_
*110 _064_
*111 _065_
*112 _066_
*113 _067_
*114 _068_
*115 _069_
*116 _070_
*117 _071_
*118 _072_
*119 _073_
*120 _074_
*121 _075_
*122 _076_
*123 _077_
*124 _078_
*125 _079_
*126 _080_
*127 _081_
*128 _082_
*129 net1
*130 net11
*131 net2
*132 net3
*133 net4
*134 net5
*135 net6
*136 net7
*137 net8
*138 net9
*139 FILLER_0_0_109
*140 FILLER_0_0_113
*141 FILLER_0_0_125
*142 FILLER_0_0_137
*143 FILLER_0_0_141
*144 FILLER_0_0_15
*145 FILLER_0_0_153
*146 FILLER_0_0_165
*147 FILLER_0_0_169
*148 FILLER_0_0_181
*149 FILLER_0_0_193
*150 FILLER_0_0_197
*151 FILLER_0_0_209
*152 FILLER_0_0_221
*153 FILLER_0_0_225
*154 FILLER_0_0_237
*155 FILLER_0_0_249
*156 FILLER_0_0_253
*157 FILLER_0_0_265
*158 FILLER_0_0_27
*159 FILLER_0_0_277
*160 FILLER_0_0_281
*161 FILLER_0_0_29
*162 FILLER_0_0_293
*163 FILLER_0_0_3
*164 FILLER_0_0_305
*165 FILLER_0_0_309
*166 FILLER_0_0_321
*167 FILLER_0_0_333
*168 FILLER_0_0_41
*169 FILLER_0_0_53
*170 FILLER_0_0_57
*171 FILLER_0_0_69
*172 FILLER_0_0_81
*173 FILLER_0_0_85
*174 FILLER_0_0_97
*175 FILLER_0_10_109
*176 FILLER_0_10_121
*177 FILLER_0_10_133
*178 FILLER_0_10_139
*179 FILLER_0_10_141
*180 FILLER_0_10_15
*181 FILLER_0_10_153
*182 FILLER_0_10_165
*183 FILLER_0_10_177
*184 FILLER_0_10_189
*185 FILLER_0_10_195
*186 FILLER_0_10_197
*187 FILLER_0_10_209
*188 FILLER_0_10_221
*189 FILLER_0_10_233
*190 FILLER_0_10_245
*191 FILLER_0_10_251
*192 FILLER_0_10_253
*193 FILLER_0_10_265
*194 FILLER_0_10_27
*195 FILLER_0_10_277
*196 FILLER_0_10_289
*197 FILLER_0_10_29
*198 FILLER_0_10_3
*199 FILLER_0_10_301
*200 FILLER_0_10_307
*201 FILLER_0_10_309
*202 FILLER_0_10_321
*203 FILLER_0_10_333
*204 FILLER_0_10_41
*205 FILLER_0_10_53
*206 FILLER_0_10_65
*207 FILLER_0_10_77
*208 FILLER_0_10_83
*209 FILLER_0_10_85
*210 FILLER_0_10_97
*211 FILLER_0_11_105
*212 FILLER_0_11_111
*213 FILLER_0_11_113
*214 FILLER_0_11_125
*215 FILLER_0_11_137
*216 FILLER_0_11_149
*217 FILLER_0_11_15
*218 FILLER_0_11_161
*219 FILLER_0_11_167
*220 FILLER_0_11_169
*221 FILLER_0_11_181
*222 FILLER_0_11_193
*223 FILLER_0_11_205
*224 FILLER_0_11_217
*225 FILLER_0_11_223
*226 FILLER_0_11_225
*227 FILLER_0_11_237
*228 FILLER_0_11_249
*229 FILLER_0_11_261
*230 FILLER_0_11_27
*231 FILLER_0_11_273
*232 FILLER_0_11_279
*233 FILLER_0_11_281
*234 FILLER_0_11_293
*235 FILLER_0_11_3
*236 FILLER_0_11_305
*237 FILLER_0_11_317
*238 FILLER_0_11_329
*239 FILLER_0_11_39
*240 FILLER_0_11_51
*241 FILLER_0_11_55
*242 FILLER_0_11_57
*243 FILLER_0_11_69
*244 FILLER_0_11_81
*245 FILLER_0_11_93
*246 FILLER_0_12_109
*247 FILLER_0_12_121
*248 FILLER_0_12_133
*249 FILLER_0_12_139
*250 FILLER_0_12_141
*251 FILLER_0_12_15
*252 FILLER_0_12_153
*253 FILLER_0_12_165
*254 FILLER_0_12_177
*255 FILLER_0_12_189
*256 FILLER_0_12_195
*257 FILLER_0_12_197
*258 FILLER_0_12_209
*259 FILLER_0_12_221
*260 FILLER_0_12_233
*261 FILLER_0_12_245
*262 FILLER_0_12_251
*263 FILLER_0_12_253
*264 FILLER_0_12_265
*265 FILLER_0_12_27
*266 FILLER_0_12_277
*267 FILLER_0_12_289
*268 FILLER_0_12_29
*269 FILLER_0_12_3
*270 FILLER_0_12_301
*271 FILLER_0_12_307
*272 FILLER_0_12_309
*273 FILLER_0_12_321
*274 FILLER_0_12_333
*275 FILLER_0_12_41
*276 FILLER_0_12_53
*277 FILLER_0_12_65
*278 FILLER_0_12_77
*279 FILLER_0_12_83
*280 FILLER_0_12_85
*281 FILLER_0_12_97
*282 FILLER_0_13_105
*283 FILLER_0_13_111
*284 FILLER_0_13_113
*285 FILLER_0_13_125
*286 FILLER_0_13_137
*287 FILLER_0_13_149
*288 FILLER_0_13_15
*289 FILLER_0_13_161
*290 FILLER_0_13_167
*291 FILLER_0_13_169
*292 FILLER_0_13_181
*293 FILLER_0_13_193
*294 FILLER_0_13_205
*295 FILLER_0_13_217
*296 FILLER_0_13_223
*297 FILLER_0_13_225
*298 FILLER_0_13_237
*299 FILLER_0_13_249
*300 FILLER_0_13_261
*301 FILLER_0_13_27
*302 FILLER_0_13_273
*303 FILLER_0_13_279
*304 FILLER_0_13_281
*305 FILLER_0_13_293
*306 FILLER_0_13_3
*307 FILLER_0_13_305
*308 FILLER_0_13_317
*309 FILLER_0_13_329
*310 FILLER_0_13_39
*311 FILLER_0_13_51
*312 FILLER_0_13_55
*313 FILLER_0_13_57
*314 FILLER_0_13_69
*315 FILLER_0_13_81
*316 FILLER_0_13_93
*317 FILLER_0_14_109
*318 FILLER_0_14_121
*319 FILLER_0_14_133
*320 FILLER_0_14_139
*321 FILLER_0_14_141
*322 FILLER_0_14_15
*323 FILLER_0_14_153
*324 FILLER_0_14_165
*325 FILLER_0_14_177
*326 FILLER_0_14_189
*327 FILLER_0_14_195
*328 FILLER_0_14_197
*329 FILLER_0_14_209
*330 FILLER_0_14_221
*331 FILLER_0_14_233
*332 FILLER_0_14_245
*333 FILLER_0_14_251
*334 FILLER_0_14_253
*335 FILLER_0_14_265
*336 FILLER_0_14_27
*337 FILLER_0_14_277
*338 FILLER_0_14_289
*339 FILLER_0_14_29
*340 FILLER_0_14_3
*341 FILLER_0_14_301
*342 FILLER_0_14_307
*343 FILLER_0_14_309
*344 FILLER_0_14_321
*345 FILLER_0_14_333
*346 FILLER_0_14_41
*347 FILLER_0_14_53
*348 FILLER_0_14_65
*349 FILLER_0_14_77
*350 FILLER_0_14_83
*351 FILLER_0_14_85
*352 FILLER_0_14_97
*353 FILLER_0_15_105
*354 FILLER_0_15_111
*355 FILLER_0_15_113
*356 FILLER_0_15_125
*357 FILLER_0_15_137
*358 FILLER_0_15_149
*359 FILLER_0_15_15
*360 FILLER_0_15_161
*361 FILLER_0_15_167
*362 FILLER_0_15_169
*363 FILLER_0_15_181
*364 FILLER_0_15_193
*365 FILLER_0_15_205
*366 FILLER_0_15_217
*367 FILLER_0_15_223
*368 FILLER_0_15_225
*369 FILLER_0_15_237
*370 FILLER_0_15_249
*371 FILLER_0_15_261
*372 FILLER_0_15_27
*373 FILLER_0_15_273
*374 FILLER_0_15_279
*375 FILLER_0_15_281
*376 FILLER_0_15_293
*377 FILLER_0_15_3
*378 FILLER_0_15_305
*379 FILLER_0_15_317
*380 FILLER_0_15_329
*381 FILLER_0_15_39
*382 FILLER_0_15_51
*383 FILLER_0_15_55
*384 FILLER_0_15_57
*385 FILLER_0_15_69
*386 FILLER_0_15_81
*387 FILLER_0_15_93
*388 FILLER_0_16_109
*389 FILLER_0_16_121
*390 FILLER_0_16_133
*391 FILLER_0_16_139
*392 FILLER_0_16_141
*393 FILLER_0_16_15
*394 FILLER_0_16_153
*395 FILLER_0_16_165
*396 FILLER_0_16_177
*397 FILLER_0_16_189
*398 FILLER_0_16_195
*399 FILLER_0_16_197
*400 FILLER_0_16_209
*401 FILLER_0_16_221
*402 FILLER_0_16_233
*403 FILLER_0_16_245
*404 FILLER_0_16_251
*405 FILLER_0_16_253
*406 FILLER_0_16_265
*407 FILLER_0_16_27
*408 FILLER_0_16_277
*409 FILLER_0_16_289
*410 FILLER_0_16_29
*411 FILLER_0_16_3
*412 FILLER_0_16_301
*413 FILLER_0_16_307
*414 FILLER_0_16_309
*415 FILLER_0_16_321
*416 FILLER_0_16_333
*417 FILLER_0_16_41
*418 FILLER_0_16_53
*419 FILLER_0_16_65
*420 FILLER_0_16_77
*421 FILLER_0_16_83
*422 FILLER_0_16_85
*423 FILLER_0_16_97
*424 FILLER_0_17_105
*425 FILLER_0_17_111
*426 FILLER_0_17_113
*427 FILLER_0_17_125
*428 FILLER_0_17_137
*429 FILLER_0_17_149
*430 FILLER_0_17_15
*431 FILLER_0_17_161
*432 FILLER_0_17_167
*433 FILLER_0_17_169
*434 FILLER_0_17_181
*435 FILLER_0_17_193
*436 FILLER_0_17_205
*437 FILLER_0_17_217
*438 FILLER_0_17_223
*439 FILLER_0_17_225
*440 FILLER_0_17_237
*441 FILLER_0_17_249
*442 FILLER_0_17_261
*443 FILLER_0_17_27
*444 FILLER_0_17_273
*445 FILLER_0_17_279
*446 FILLER_0_17_281
*447 FILLER_0_17_293
*448 FILLER_0_17_3
*449 FILLER_0_17_305
*450 FILLER_0_17_317
*451 FILLER_0_17_329
*452 FILLER_0_17_39
*453 FILLER_0_17_51
*454 FILLER_0_17_55
*455 FILLER_0_17_57
*456 FILLER_0_17_69
*457 FILLER_0_17_81
*458 FILLER_0_17_93
*459 FILLER_0_18_109
*460 FILLER_0_18_121
*461 FILLER_0_18_133
*462 FILLER_0_18_139
*463 FILLER_0_18_141
*464 FILLER_0_18_15
*465 FILLER_0_18_153
*466 FILLER_0_18_165
*467 FILLER_0_18_177
*468 FILLER_0_18_189
*469 FILLER_0_18_195
*470 FILLER_0_18_197
*471 FILLER_0_18_209
*472 FILLER_0_18_221
*473 FILLER_0_18_233
*474 FILLER_0_18_245
*475 FILLER_0_18_251
*476 FILLER_0_18_253
*477 FILLER_0_18_265
*478 FILLER_0_18_27
*479 FILLER_0_18_277
*480 FILLER_0_18_289
*481 FILLER_0_18_29
*482 FILLER_0_18_3
*483 FILLER_0_18_301
*484 FILLER_0_18_307
*485 FILLER_0_18_309
*486 FILLER_0_18_321
*487 FILLER_0_18_333
*488 FILLER_0_18_41
*489 FILLER_0_18_53
*490 FILLER_0_18_65
*491 FILLER_0_18_77
*492 FILLER_0_18_83
*493 FILLER_0_18_85
*494 FILLER_0_18_97
*495 FILLER_0_19_105
*496 FILLER_0_19_111
*497 FILLER_0_19_113
*498 FILLER_0_19_125
*499 FILLER_0_19_137
*500 FILLER_0_19_149
*501 FILLER_0_19_15
*502 FILLER_0_19_161
*503 FILLER_0_19_167
*504 FILLER_0_19_169
*505 FILLER_0_19_181
*506 FILLER_0_19_193
*507 FILLER_0_19_205
*508 FILLER_0_19_217
*509 FILLER_0_19_223
*510 FILLER_0_19_225
*511 FILLER_0_19_237
*512 FILLER_0_19_249
*513 FILLER_0_19_261
*514 FILLER_0_19_27
*515 FILLER_0_19_273
*516 FILLER_0_19_279
*517 FILLER_0_19_281
*518 FILLER_0_19_293
*519 FILLER_0_19_3
*520 FILLER_0_19_305
*521 FILLER_0_19_317
*522 FILLER_0_19_329
*523 FILLER_0_19_39
*524 FILLER_0_19_51
*525 FILLER_0_19_55
*526 FILLER_0_19_57
*527 FILLER_0_19_69
*528 FILLER_0_19_81
*529 FILLER_0_19_93
*530 FILLER_0_1_105
*531 FILLER_0_1_111
*532 FILLER_0_1_113
*533 FILLER_0_1_125
*534 FILLER_0_1_137
*535 FILLER_0_1_149
*536 FILLER_0_1_15
*537 FILLER_0_1_161
*538 FILLER_0_1_167
*539 FILLER_0_1_169
*540 FILLER_0_1_181
*541 FILLER_0_1_193
*542 FILLER_0_1_205
*543 FILLER_0_1_217
*544 FILLER_0_1_223
*545 FILLER_0_1_225
*546 FILLER_0_1_237
*547 FILLER_0_1_249
*548 FILLER_0_1_261
*549 FILLER_0_1_27
*550 FILLER_0_1_273
*551 FILLER_0_1_279
*552 FILLER_0_1_281
*553 FILLER_0_1_293
*554 FILLER_0_1_3
*555 FILLER_0_1_305
*556 FILLER_0_1_317
*557 FILLER_0_1_329
*558 FILLER_0_1_39
*559 FILLER_0_1_51
*560 FILLER_0_1_55
*561 FILLER_0_1_57
*562 FILLER_0_1_69
*563 FILLER_0_1_81
*564 FILLER_0_1_93
*565 FILLER_0_20_109
*566 FILLER_0_20_121
*567 FILLER_0_20_133
*568 FILLER_0_20_139
*569 FILLER_0_20_141
*570 FILLER_0_20_15
*571 FILLER_0_20_153
*572 FILLER_0_20_165
*573 FILLER_0_20_177
*574 FILLER_0_20_189
*575 FILLER_0_20_195
*576 FILLER_0_20_197
*577 FILLER_0_20_209
*578 FILLER_0_20_221
*579 FILLER_0_20_233
*580 FILLER_0_20_245
*581 FILLER_0_20_251
*582 FILLER_0_20_253
*583 FILLER_0_20_265
*584 FILLER_0_20_27
*585 FILLER_0_20_277
*586 FILLER_0_20_289
*587 FILLER_0_20_29
*588 FILLER_0_20_3
*589 FILLER_0_20_301
*590 FILLER_0_20_307
*591 FILLER_0_20_309
*592 FILLER_0_20_321
*593 FILLER_0_20_333
*594 FILLER_0_20_41
*595 FILLER_0_20_53
*596 FILLER_0_20_65
*597 FILLER_0_20_77
*598 FILLER_0_20_83
*599 FILLER_0_20_85
*600 FILLER_0_20_97
*601 FILLER_0_21_105
*602 FILLER_0_21_111
*603 FILLER_0_21_113
*604 FILLER_0_21_125
*605 FILLER_0_21_137
*606 FILLER_0_21_149
*607 FILLER_0_21_15
*608 FILLER_0_21_161
*609 FILLER_0_21_167
*610 FILLER_0_21_169
*611 FILLER_0_21_181
*612 FILLER_0_21_193
*613 FILLER_0_21_205
*614 FILLER_0_21_217
*615 FILLER_0_21_223
*616 FILLER_0_21_225
*617 FILLER_0_21_237
*618 FILLER_0_21_249
*619 FILLER_0_21_261
*620 FILLER_0_21_27
*621 FILLER_0_21_273
*622 FILLER_0_21_279
*623 FILLER_0_21_281
*624 FILLER_0_21_293
*625 FILLER_0_21_3
*626 FILLER_0_21_305
*627 FILLER_0_21_317
*628 FILLER_0_21_329
*629 FILLER_0_21_39
*630 FILLER_0_21_51
*631 FILLER_0_21_55
*632 FILLER_0_21_57
*633 FILLER_0_21_69
*634 FILLER_0_21_81
*635 FILLER_0_21_93
*636 FILLER_0_22_109
*637 FILLER_0_22_121
*638 FILLER_0_22_133
*639 FILLER_0_22_139
*640 FILLER_0_22_141
*641 FILLER_0_22_15
*642 FILLER_0_22_153
*643 FILLER_0_22_165
*644 FILLER_0_22_177
*645 FILLER_0_22_189
*646 FILLER_0_22_195
*647 FILLER_0_22_197
*648 FILLER_0_22_209
*649 FILLER_0_22_221
*650 FILLER_0_22_233
*651 FILLER_0_22_245
*652 FILLER_0_22_251
*653 FILLER_0_22_253
*654 FILLER_0_22_265
*655 FILLER_0_22_27
*656 FILLER_0_22_277
*657 FILLER_0_22_289
*658 FILLER_0_22_29
*659 FILLER_0_22_3
*660 FILLER_0_22_301
*661 FILLER_0_22_307
*662 FILLER_0_22_309
*663 FILLER_0_22_321
*664 FILLER_0_22_333
*665 FILLER_0_22_41
*666 FILLER_0_22_53
*667 FILLER_0_22_65
*668 FILLER_0_22_77
*669 FILLER_0_22_83
*670 FILLER_0_22_85
*671 FILLER_0_22_97
*672 FILLER_0_23_105
*673 FILLER_0_23_111
*674 FILLER_0_23_113
*675 FILLER_0_23_125
*676 FILLER_0_23_137
*677 FILLER_0_23_149
*678 FILLER_0_23_15
*679 FILLER_0_23_161
*680 FILLER_0_23_167
*681 FILLER_0_23_169
*682 FILLER_0_23_181
*683 FILLER_0_23_193
*684 FILLER_0_23_205
*685 FILLER_0_23_217
*686 FILLER_0_23_223
*687 FILLER_0_23_225
*688 FILLER_0_23_237
*689 FILLER_0_23_249
*690 FILLER_0_23_261
*691 FILLER_0_23_27
*692 FILLER_0_23_273
*693 FILLER_0_23_279
*694 FILLER_0_23_281
*695 FILLER_0_23_293
*696 FILLER_0_23_3
*697 FILLER_0_23_305
*698 FILLER_0_23_317
*699 FILLER_0_23_329
*700 FILLER_0_23_39
*701 FILLER_0_23_51
*702 FILLER_0_23_55
*703 FILLER_0_23_57
*704 FILLER_0_23_69
*705 FILLER_0_23_81
*706 FILLER_0_23_93
*707 FILLER_0_24_109
*708 FILLER_0_24_121
*709 FILLER_0_24_133
*710 FILLER_0_24_139
*711 FILLER_0_24_141
*712 FILLER_0_24_15
*713 FILLER_0_24_153
*714 FILLER_0_24_165
*715 FILLER_0_24_177
*716 FILLER_0_24_189
*717 FILLER_0_24_195
*718 FILLER_0_24_197
*719 FILLER_0_24_209
*720 FILLER_0_24_221
*721 FILLER_0_24_233
*722 FILLER_0_24_245
*723 FILLER_0_24_251
*724 FILLER_0_24_253
*725 FILLER_0_24_265
*726 FILLER_0_24_27
*727 FILLER_0_24_277
*728 FILLER_0_24_289
*729 FILLER_0_24_29
*730 FILLER_0_24_3
*731 FILLER_0_24_301
*732 FILLER_0_24_307
*733 FILLER_0_24_309
*734 FILLER_0_24_321
*735 FILLER_0_24_333
*736 FILLER_0_24_41
*737 FILLER_0_24_53
*738 FILLER_0_24_65
*739 FILLER_0_24_77
*740 FILLER_0_24_83
*741 FILLER_0_24_85
*742 FILLER_0_24_97
*743 FILLER_0_25_105
*744 FILLER_0_25_111
*745 FILLER_0_25_113
*746 FILLER_0_25_125
*747 FILLER_0_25_137
*748 FILLER_0_25_149
*749 FILLER_0_25_15
*750 FILLER_0_25_161
*751 FILLER_0_25_167
*752 FILLER_0_25_169
*753 FILLER_0_25_181
*754 FILLER_0_25_193
*755 FILLER_0_25_205
*756 FILLER_0_25_217
*757 FILLER_0_25_223
*758 FILLER_0_25_225
*759 FILLER_0_25_237
*760 FILLER_0_25_249
*761 FILLER_0_25_261
*762 FILLER_0_25_27
*763 FILLER_0_25_273
*764 FILLER_0_25_279
*765 FILLER_0_25_281
*766 FILLER_0_25_293
*767 FILLER_0_25_3
*768 FILLER_0_25_305
*769 FILLER_0_25_317
*770 FILLER_0_25_329
*771 FILLER_0_25_39
*772 FILLER_0_25_51
*773 FILLER_0_25_55
*774 FILLER_0_25_57
*775 FILLER_0_25_69
*776 FILLER_0_25_81
*777 FILLER_0_25_93
*778 FILLER_0_26_109
*779 FILLER_0_26_121
*780 FILLER_0_26_133
*781 FILLER_0_26_139
*782 FILLER_0_26_141
*783 FILLER_0_26_15
*784 FILLER_0_26_153
*785 FILLER_0_26_165
*786 FILLER_0_26_177
*787 FILLER_0_26_189
*788 FILLER_0_26_195
*789 FILLER_0_26_197
*790 FILLER_0_26_209
*791 FILLER_0_26_221
*792 FILLER_0_26_233
*793 FILLER_0_26_245
*794 FILLER_0_26_251
*795 FILLER_0_26_253
*796 FILLER_0_26_265
*797 FILLER_0_26_27
*798 FILLER_0_26_277
*799 FILLER_0_26_289
*800 FILLER_0_26_29
*801 FILLER_0_26_3
*802 FILLER_0_26_301
*803 FILLER_0_26_307
*804 FILLER_0_26_309
*805 FILLER_0_26_321
*806 FILLER_0_26_333
*807 FILLER_0_26_41
*808 FILLER_0_26_53
*809 FILLER_0_26_65
*810 FILLER_0_26_77
*811 FILLER_0_26_83
*812 FILLER_0_26_85
*813 FILLER_0_26_97
*814 FILLER_0_27_105
*815 FILLER_0_27_111
*816 FILLER_0_27_113
*817 FILLER_0_27_125
*818 FILLER_0_27_137
*819 FILLER_0_27_149
*820 FILLER_0_27_15
*821 FILLER_0_27_161
*822 FILLER_0_27_167
*823 FILLER_0_27_169
*824 FILLER_0_27_181
*825 FILLER_0_27_193
*826 FILLER_0_27_205
*827 FILLER_0_27_217
*828 FILLER_0_27_223
*829 FILLER_0_27_225
*830 FILLER_0_27_237
*831 FILLER_0_27_249
*832 FILLER_0_27_261
*833 FILLER_0_27_27
*834 FILLER_0_27_273
*835 FILLER_0_27_279
*836 FILLER_0_27_281
*837 FILLER_0_27_293
*838 FILLER_0_27_3
*839 FILLER_0_27_305
*840 FILLER_0_27_317
*841 FILLER_0_27_329
*842 FILLER_0_27_39
*843 FILLER_0_27_51
*844 FILLER_0_27_55
*845 FILLER_0_27_57
*846 FILLER_0_27_69
*847 FILLER_0_27_81
*848 FILLER_0_27_93
*849 FILLER_0_28_109
*850 FILLER_0_28_121
*851 FILLER_0_28_133
*852 FILLER_0_28_139
*853 FILLER_0_28_141
*854 FILLER_0_28_15
*855 FILLER_0_28_153
*856 FILLER_0_28_165
*857 FILLER_0_28_177
*858 FILLER_0_28_189
*859 FILLER_0_28_195
*860 FILLER_0_28_197
*861 FILLER_0_28_209
*862 FILLER_0_28_221
*863 FILLER_0_28_233
*864 FILLER_0_28_245
*865 FILLER_0_28_251
*866 FILLER_0_28_253
*867 FILLER_0_28_265
*868 FILLER_0_28_27
*869 FILLER_0_28_277
*870 FILLER_0_28_289
*871 FILLER_0_28_29
*872 FILLER_0_28_3
*873 FILLER_0_28_301
*874 FILLER_0_28_307
*875 FILLER_0_28_309
*876 FILLER_0_28_321
*877 FILLER_0_28_333
*878 FILLER_0_28_41
*879 FILLER_0_28_53
*880 FILLER_0_28_65
*881 FILLER_0_28_77
*882 FILLER_0_28_83
*883 FILLER_0_28_85
*884 FILLER_0_28_97
*885 FILLER_0_29_105
*886 FILLER_0_29_111
*887 FILLER_0_29_113
*888 FILLER_0_29_125
*889 FILLER_0_29_137
*890 FILLER_0_29_149
*891 FILLER_0_29_15
*892 FILLER_0_29_161
*893 FILLER_0_29_167
*894 FILLER_0_29_169
*895 FILLER_0_29_181
*896 FILLER_0_29_193
*897 FILLER_0_29_205
*898 FILLER_0_29_217
*899 FILLER_0_29_223
*900 FILLER_0_29_225
*901 FILLER_0_29_237
*902 FILLER_0_29_249
*903 FILLER_0_29_261
*904 FILLER_0_29_27
*905 FILLER_0_29_273
*906 FILLER_0_29_279
*907 FILLER_0_29_281
*908 FILLER_0_29_293
*909 FILLER_0_29_3
*910 FILLER_0_29_305
*911 FILLER_0_29_317
*912 FILLER_0_29_329
*913 FILLER_0_29_39
*914 FILLER_0_29_51
*915 FILLER_0_29_55
*916 FILLER_0_29_57
*917 FILLER_0_29_69
*918 FILLER_0_29_81
*919 FILLER_0_29_93
*920 FILLER_0_2_109
*921 FILLER_0_2_121
*922 FILLER_0_2_133
*923 FILLER_0_2_139
*924 FILLER_0_2_141
*925 FILLER_0_2_15
*926 FILLER_0_2_153
*927 FILLER_0_2_165
*928 FILLER_0_2_177
*929 FILLER_0_2_189
*930 FILLER_0_2_195
*931 FILLER_0_2_197
*932 FILLER_0_2_209
*933 FILLER_0_2_221
*934 FILLER_0_2_233
*935 FILLER_0_2_245
*936 FILLER_0_2_251
*937 FILLER_0_2_253
*938 FILLER_0_2_265
*939 FILLER_0_2_27
*940 FILLER_0_2_277
*941 FILLER_0_2_289
*942 FILLER_0_2_29
*943 FILLER_0_2_3
*944 FILLER_0_2_301
*945 FILLER_0_2_307
*946 FILLER_0_2_309
*947 FILLER_0_2_321
*948 FILLER_0_2_333
*949 FILLER_0_2_41
*950 FILLER_0_2_53
*951 FILLER_0_2_65
*952 FILLER_0_2_77
*953 FILLER_0_2_83
*954 FILLER_0_2_85
*955 FILLER_0_2_97
*956 FILLER_0_30_109
*957 FILLER_0_30_121
*958 FILLER_0_30_133
*959 FILLER_0_30_139
*960 FILLER_0_30_141
*961 FILLER_0_30_15
*962 FILLER_0_30_153
*963 FILLER_0_30_165
*964 FILLER_0_30_177
*965 FILLER_0_30_189
*966 FILLER_0_30_195
*967 FILLER_0_30_197
*968 FILLER_0_30_209
*969 FILLER_0_30_221
*970 FILLER_0_30_233
*971 FILLER_0_30_245
*972 FILLER_0_30_251
*973 FILLER_0_30_253
*974 FILLER_0_30_265
*975 FILLER_0_30_27
*976 FILLER_0_30_277
*977 FILLER_0_30_289
*978 FILLER_0_30_29
*979 FILLER_0_30_3
*980 FILLER_0_30_301
*981 FILLER_0_30_307
*982 FILLER_0_30_309
*983 FILLER_0_30_321
*984 FILLER_0_30_333
*985 FILLER_0_30_41
*986 FILLER_0_30_53
*987 FILLER_0_30_65
*988 FILLER_0_30_77
*989 FILLER_0_30_83
*990 FILLER_0_30_85
*991 FILLER_0_30_97
*992 FILLER_0_31_105
*993 FILLER_0_31_111
*994 FILLER_0_31_113
*995 FILLER_0_31_125
*996 FILLER_0_31_137
*997 FILLER_0_31_149
*998 FILLER_0_31_15
*999 FILLER_0_31_161
*1000 FILLER_0_31_167
*1001 FILLER_0_31_169
*1002 FILLER_0_31_181
*1003 FILLER_0_31_193
*1004 FILLER_0_31_205
*1005 FILLER_0_31_217
*1006 FILLER_0_31_223
*1007 FILLER_0_31_225
*1008 FILLER_0_31_237
*1009 FILLER_0_31_249
*1010 FILLER_0_31_254
*1011 FILLER_0_31_266
*1012 FILLER_0_31_27
*1013 FILLER_0_31_278
*1014 FILLER_0_31_281
*1015 FILLER_0_31_285
*1016 FILLER_0_31_289
*1017 FILLER_0_31_3
*1018 FILLER_0_31_301
*1019 FILLER_0_31_313
*1020 FILLER_0_31_325
*1021 FILLER_0_31_333
*1022 FILLER_0_31_39
*1023 FILLER_0_31_51
*1024 FILLER_0_31_55
*1025 FILLER_0_31_57
*1026 FILLER_0_31_69
*1027 FILLER_0_31_81
*1028 FILLER_0_31_93
*1029 FILLER_0_32_109
*1030 FILLER_0_32_121
*1031 FILLER_0_32_133
*1032 FILLER_0_32_139
*1033 FILLER_0_32_141
*1034 FILLER_0_32_15
*1035 FILLER_0_32_153
*1036 FILLER_0_32_165
*1037 FILLER_0_32_177
*1038 FILLER_0_32_189
*1039 FILLER_0_32_195
*1040 FILLER_0_32_197
*1041 FILLER_0_32_220
*1042 FILLER_0_32_232
*1043 FILLER_0_32_244
*1044 FILLER_0_32_262
*1045 FILLER_0_32_27
*1046 FILLER_0_32_272
*1047 FILLER_0_32_280
*1048 FILLER_0_32_29
*1049 FILLER_0_32_3
*1050 FILLER_0_32_305
*1051 FILLER_0_32_309
*1052 FILLER_0_32_321
*1053 FILLER_0_32_333
*1054 FILLER_0_32_41
*1055 FILLER_0_32_53
*1056 FILLER_0_32_65
*1057 FILLER_0_32_77
*1058 FILLER_0_32_83
*1059 FILLER_0_32_85
*1060 FILLER_0_32_97
*1061 FILLER_0_33_105
*1062 FILLER_0_33_111
*1063 FILLER_0_33_113
*1064 FILLER_0_33_125
*1065 FILLER_0_33_137
*1066 FILLER_0_33_141
*1067 FILLER_0_33_15
*1068 FILLER_0_33_164
*1069 FILLER_0_33_169
*1070 FILLER_0_33_175
*1071 FILLER_0_33_198
*1072 FILLER_0_33_223
*1073 FILLER_0_33_245
*1074 FILLER_0_33_257
*1075 FILLER_0_33_263
*1076 FILLER_0_33_27
*1077 FILLER_0_33_279
*1078 FILLER_0_33_281
*1079 FILLER_0_33_293
*1080 FILLER_0_33_3
*1081 FILLER_0_33_310
*1082 FILLER_0_33_322
*1083 FILLER_0_33_334
*1084 FILLER_0_33_39
*1085 FILLER_0_33_51
*1086 FILLER_0_33_55
*1087 FILLER_0_33_57
*1088 FILLER_0_33_69
*1089 FILLER_0_33_81
*1090 FILLER_0_33_93
*1091 FILLER_0_34_109
*1092 FILLER_0_34_121
*1093 FILLER_0_34_133
*1094 FILLER_0_34_139
*1095 FILLER_0_34_141
*1096 FILLER_0_34_149
*1097 FILLER_0_34_15
*1098 FILLER_0_34_190
*1099 FILLER_0_34_213
*1100 FILLER_0_34_225
*1101 FILLER_0_34_238
*1102 FILLER_0_34_242
*1103 FILLER_0_34_253
*1104 FILLER_0_34_265
*1105 FILLER_0_34_269
*1106 FILLER_0_34_27
*1107 FILLER_0_34_274
*1108 FILLER_0_34_281
*1109 FILLER_0_34_29
*1110 FILLER_0_34_294
*1111 FILLER_0_34_3
*1112 FILLER_0_34_306
*1113 FILLER_0_34_316
*1114 FILLER_0_34_328
*1115 FILLER_0_34_334
*1116 FILLER_0_34_41
*1117 FILLER_0_34_53
*1118 FILLER_0_34_65
*1119 FILLER_0_34_77
*1120 FILLER_0_34_83
*1121 FILLER_0_34_85
*1122 FILLER_0_34_97
*1123 FILLER_0_35_105
*1124 FILLER_0_35_111
*1125 FILLER_0_35_113
*1126 FILLER_0_35_125
*1127 FILLER_0_35_137
*1128 FILLER_0_35_15
*1129 FILLER_0_35_161
*1130 FILLER_0_35_182
*1131 FILLER_0_35_189
*1132 FILLER_0_35_197
*1133 FILLER_0_35_265
*1134 FILLER_0_35_269
*1135 FILLER_0_35_27
*1136 FILLER_0_35_276
*1137 FILLER_0_35_286
*1138 FILLER_0_35_295
*1139 FILLER_0_35_3
*1140 FILLER_0_35_312
*1141 FILLER_0_35_324
*1142 FILLER_0_35_332
*1143 FILLER_0_35_39
*1144 FILLER_0_35_51
*1145 FILLER_0_35_55
*1146 FILLER_0_35_57
*1147 FILLER_0_35_69
*1148 FILLER_0_35_81
*1149 FILLER_0_35_93
*1150 FILLER_0_36_109
*1151 FILLER_0_36_121
*1152 FILLER_0_36_133
*1153 FILLER_0_36_139
*1154 FILLER_0_36_141
*1155 FILLER_0_36_15
*1156 FILLER_0_36_150
*1157 FILLER_0_36_158
*1158 FILLER_0_36_183
*1159 FILLER_0_36_193
*1160 FILLER_0_36_197
*1161 FILLER_0_36_205
*1162 FILLER_0_36_214
*1163 FILLER_0_36_232
*1164 FILLER_0_36_240
*1165 FILLER_0_36_250
*1166 FILLER_0_36_253
*1167 FILLER_0_36_263
*1168 FILLER_0_36_27
*1169 FILLER_0_36_271
*1170 FILLER_0_36_278
*1171 FILLER_0_36_284
*1172 FILLER_0_36_29
*1173 FILLER_0_36_296
*1174 FILLER_0_36_3
*1175 FILLER_0_36_307
*1176 FILLER_0_36_309
*1177 FILLER_0_36_321
*1178 FILLER_0_36_333
*1179 FILLER_0_36_41
*1180 FILLER_0_36_53
*1181 FILLER_0_36_65
*1182 FILLER_0_36_77
*1183 FILLER_0_36_83
*1184 FILLER_0_36_85
*1185 FILLER_0_36_97
*1186 FILLER_0_37_105
*1187 FILLER_0_37_111
*1188 FILLER_0_37_113
*1189 FILLER_0_37_125
*1190 FILLER_0_37_137
*1191 FILLER_0_37_15
*1192 FILLER_0_37_165
*1193 FILLER_0_37_180
*1194 FILLER_0_37_188
*1195 FILLER_0_37_200
*1196 FILLER_0_37_220
*1197 FILLER_0_37_236
*1198 FILLER_0_37_255
*1199 FILLER_0_37_27
*1200 FILLER_0_37_273
*1201 FILLER_0_37_279
*1202 FILLER_0_37_296
*1203 FILLER_0_37_3
*1204 FILLER_0_37_313
*1205 FILLER_0_37_319
*1206 FILLER_0_37_331
*1207 FILLER_0_37_39
*1208 FILLER_0_37_51
*1209 FILLER_0_37_55
*1210 FILLER_0_37_57
*1211 FILLER_0_37_69
*1212 FILLER_0_37_81
*1213 FILLER_0_37_93
*1214 FILLER_0_38_10
*1215 FILLER_0_38_109
*1216 FILLER_0_38_113
*1217 FILLER_0_38_121
*1218 FILLER_0_38_131
*1219 FILLER_0_38_135
*1220 FILLER_0_38_14
*1221 FILLER_0_38_141
*1222 FILLER_0_38_148
*1223 FILLER_0_38_154
*1224 FILLER_0_38_169
*1225 FILLER_0_38_173
*1226 FILLER_0_38_18
*1227 FILLER_0_38_208
*1228 FILLER_0_38_22
*1229 FILLER_0_38_220
*1230 FILLER_0_38_230
*1231 FILLER_0_38_236
*1232 FILLER_0_38_243
*1233 FILLER_0_38_250
*1234 FILLER_0_38_263
*1235 FILLER_0_38_287
*1236 FILLER_0_38_301
*1237 FILLER_0_38_313
*1238 FILLER_0_38_32
*1239 FILLER_0_38_326
*1240 FILLER_0_38_334
*1241 FILLER_0_38_38
*1242 FILLER_0_38_42
*1243 FILLER_0_38_46
*1244 FILLER_0_38_50
*1245 FILLER_0_38_54
*1246 FILLER_0_38_57
*1247 FILLER_0_38_6
*1248 FILLER_0_38_64
*1249 FILLER_0_38_70
*1250 FILLER_0_38_82
*1251 FILLER_0_38_85
*1252 FILLER_0_38_97
*1253 FILLER_0_3_105
*1254 FILLER_0_3_111
*1255 FILLER_0_3_113
*1256 FILLER_0_3_125
*1257 FILLER_0_3_137
*1258 FILLER_0_3_149
*1259 FILLER_0_3_15
*1260 FILLER_0_3_161
*1261 FILLER_0_3_167
*1262 FILLER_0_3_169
*1263 FILLER_0_3_181
*1264 FILLER_0_3_193
*1265 FILLER_0_3_205
*1266 FILLER_0_3_217
*1267 FILLER_0_3_223
*1268 FILLER_0_3_225
*1269 FILLER_0_3_237
*1270 FILLER_0_3_249
*1271 FILLER_0_3_261
*1272 FILLER_0_3_27
*1273 FILLER_0_3_273
*1274 FILLER_0_3_279
*1275 FILLER_0_3_281
*1276 FILLER_0_3_293
*1277 FILLER_0_3_3
*1278 FILLER_0_3_305
*1279 FILLER_0_3_317
*1280 FILLER_0_3_329
*1281 FILLER_0_3_39
*1282 FILLER_0_3_51
*1283 FILLER_0_3_55
*1284 FILLER_0_3_57
*1285 FILLER_0_3_69
*1286 FILLER_0_3_81
*1287 FILLER_0_3_93
*1288 FILLER_0_4_109
*1289 FILLER_0_4_121
*1290 FILLER_0_4_133
*1291 FILLER_0_4_139
*1292 FILLER_0_4_141
*1293 FILLER_0_4_15
*1294 FILLER_0_4_153
*1295 FILLER_0_4_165
*1296 FILLER_0_4_177
*1297 FILLER_0_4_189
*1298 FILLER_0_4_195
*1299 FILLER_0_4_197
*1300 FILLER_0_4_209
*1301 FILLER_0_4_221
*1302 FILLER_0_4_233
*1303 FILLER_0_4_245
*1304 FILLER_0_4_251
*1305 FILLER_0_4_253
*1306 FILLER_0_4_265
*1307 FILLER_0_4_27
*1308 FILLER_0_4_277
*1309 FILLER_0_4_289
*1310 FILLER_0_4_29
*1311 FILLER_0_4_3
*1312 FILLER_0_4_301
*1313 FILLER_0_4_307
*1314 FILLER_0_4_309
*1315 FILLER_0_4_321
*1316 FILLER_0_4_333
*1317 FILLER_0_4_41
*1318 FILLER_0_4_53
*1319 FILLER_0_4_65
*1320 FILLER_0_4_77
*1321 FILLER_0_4_83
*1322 FILLER_0_4_85
*1323 FILLER_0_4_97
*1324 FILLER_0_5_105
*1325 FILLER_0_5_111
*1326 FILLER_0_5_113
*1327 FILLER_0_5_125
*1328 FILLER_0_5_137
*1329 FILLER_0_5_149
*1330 FILLER_0_5_15
*1331 FILLER_0_5_161
*1332 FILLER_0_5_167
*1333 FILLER_0_5_169
*1334 FILLER_0_5_181
*1335 FILLER_0_5_193
*1336 FILLER_0_5_205
*1337 FILLER_0_5_217
*1338 FILLER_0_5_223
*1339 FILLER_0_5_225
*1340 FILLER_0_5_237
*1341 FILLER_0_5_249
*1342 FILLER_0_5_261
*1343 FILLER_0_5_27
*1344 FILLER_0_5_273
*1345 FILLER_0_5_279
*1346 FILLER_0_5_281
*1347 FILLER_0_5_293
*1348 FILLER_0_5_3
*1349 FILLER_0_5_305
*1350 FILLER_0_5_317
*1351 FILLER_0_5_329
*1352 FILLER_0_5_39
*1353 FILLER_0_5_51
*1354 FILLER_0_5_55
*1355 FILLER_0_5_57
*1356 FILLER_0_5_69
*1357 FILLER_0_5_81
*1358 FILLER_0_5_93
*1359 FILLER_0_6_109
*1360 FILLER_0_6_121
*1361 FILLER_0_6_133
*1362 FILLER_0_6_139
*1363 FILLER_0_6_141
*1364 FILLER_0_6_15
*1365 FILLER_0_6_153
*1366 FILLER_0_6_165
*1367 FILLER_0_6_177
*1368 FILLER_0_6_189
*1369 FILLER_0_6_195
*1370 FILLER_0_6_197
*1371 FILLER_0_6_209
*1372 FILLER_0_6_221
*1373 FILLER_0_6_233
*1374 FILLER_0_6_245
*1375 FILLER_0_6_251
*1376 FILLER_0_6_253
*1377 FILLER_0_6_265
*1378 FILLER_0_6_27
*1379 FILLER_0_6_277
*1380 FILLER_0_6_289
*1381 FILLER_0_6_29
*1382 FILLER_0_6_3
*1383 FILLER_0_6_301
*1384 FILLER_0_6_307
*1385 FILLER_0_6_309
*1386 FILLER_0_6_321
*1387 FILLER_0_6_333
*1388 FILLER_0_6_41
*1389 FILLER_0_6_53
*1390 FILLER_0_6_65
*1391 FILLER_0_6_77
*1392 FILLER_0_6_83
*1393 FILLER_0_6_85
*1394 FILLER_0_6_97
*1395 FILLER_0_7_105
*1396 FILLER_0_7_111
*1397 FILLER_0_7_113
*1398 FILLER_0_7_125
*1399 FILLER_0_7_137
*1400 FILLER_0_7_149
*1401 FILLER_0_7_15
*1402 FILLER_0_7_161
*1403 FILLER_0_7_167
*1404 FILLER_0_7_169
*1405 FILLER_0_7_181
*1406 FILLER_0_7_193
*1407 FILLER_0_7_205
*1408 FILLER_0_7_217
*1409 FILLER_0_7_223
*1410 FILLER_0_7_225
*1411 FILLER_0_7_237
*1412 FILLER_0_7_249
*1413 FILLER_0_7_261
*1414 FILLER_0_7_27
*1415 FILLER_0_7_273
*1416 FILLER_0_7_279
*1417 FILLER_0_7_281
*1418 FILLER_0_7_293
*1419 FILLER_0_7_3
*1420 FILLER_0_7_305
*1421 FILLER_0_7_317
*1422 FILLER_0_7_329
*1423 FILLER_0_7_39
*1424 FILLER_0_7_51
*1425 FILLER_0_7_55
*1426 FILLER_0_7_57
*1427 FILLER_0_7_69
*1428 FILLER_0_7_81
*1429 FILLER_0_7_93
*1430 FILLER_0_8_109
*1431 FILLER_0_8_121
*1432 FILLER_0_8_133
*1433 FILLER_0_8_139
*1434 FILLER_0_8_141
*1435 FILLER_0_8_15
*1436 FILLER_0_8_153
*1437 FILLER_0_8_165
*1438 FILLER_0_8_177
*1439 FILLER_0_8_189
*1440 FILLER_0_8_195
*1441 FILLER_0_8_197
*1442 FILLER_0_8_209
*1443 FILLER_0_8_221
*1444 FILLER_0_8_233
*1445 FILLER_0_8_245
*1446 FILLER_0_8_251
*1447 FILLER_0_8_253
*1448 FILLER_0_8_265
*1449 FILLER_0_8_27
*1450 FILLER_0_8_277
*1451 FILLER_0_8_289
*1452 FILLER_0_8_29
*1453 FILLER_0_8_3
*1454 FILLER_0_8_301
*1455 FILLER_0_8_307
*1456 FILLER_0_8_309
*1457 FILLER_0_8_321
*1458 FILLER_0_8_333
*1459 FILLER_0_8_41
*1460 FILLER_0_8_53
*1461 FILLER_0_8_65
*1462 FILLER_0_8_77
*1463 FILLER_0_8_83
*1464 FILLER_0_8_85
*1465 FILLER_0_8_97
*1466 FILLER_0_9_105
*1467 FILLER_0_9_111
*1468 FILLER_0_9_113
*1469 FILLER_0_9_125
*1470 FILLER_0_9_137
*1471 FILLER_0_9_149
*1472 FILLER_0_9_15
*1473 FILLER_0_9_161
*1474 FILLER_0_9_167
*1475 FILLER_0_9_169
*1476 FILLER_0_9_181
*1477 FILLER_0_9_193
*1478 FILLER_0_9_205
*1479 FILLER_0_9_217
*1480 FILLER_0_9_223
*1481 FILLER_0_9_225
*1482 FILLER_0_9_237
*1483 FILLER_0_9_249
*1484 FILLER_0_9_261
*1485 FILLER_0_9_27
*1486 FILLER_0_9_273
*1487 FILLER_0_9_279
*1488 FILLER_0_9_281
*1489 FILLER_0_9_293
*1490 FILLER_0_9_3
*1491 FILLER_0_9_305
*1492 FILLER_0_9_317