*SPEF "ieee 1481-1999"
*DESIGN "tt_um_soundgen"
*DATE "11:11:11 Fri 11 11, 1111"
*VENDOR "OpenRCX"
*PROGRAM "Parallel Extraction"
*VERSION "1.0"
*DESIGN_FLOW "NAME_SCOPE LOCAL" "PIN_CAP NONE"
*DIVIDER /
*DELIMITER :
*BUS_DELIMITER []
*T_UNIT 1 NS
*C_UNIT 1 PF
*R_UNIT 1 OHM
*L_UNIT 1 HENRY

*NAME_MAP
*3 clk
*4 ena
*5 rst_n
*6 ui_in[0]
*7 ui_in[1]
*8 ui_in[2]
*9 ui_in[3]
*10 ui_in[4]
*11 ui_in[5]
*12 ui_in[6]
*13 ui_in[7]
*14 uio_in[0]
*15 uio_in[1]
*16 uio_in[2]
*17 uio_in[3]
*18 uio_in[4]
*19 uio_in[5]
*20 uio_in[6]
*21 uio_in[7]
*22 net24
*23 net2
*24 net3
*25 net4
*26 net5
*27 net6
*28 net7
*29 net8
*30 net9
*31 net10
*32 net11
*33 net12
*34 net13
*35 net14
*36 uio_out[6]
*37 uio_out[7]
*38 net15
*39 net16
*40 net17
*41 net18
*42 net19
*43 net20
*44 net21
*45 net22
*46 _0000_
*47 _0001_
*48 _0002_
*49 _0003_
*50 _0004_
*51 _0005_
*52 _0006_
*53 _0007_
*54 _0008_
*55 _0009_
*56 _0010_
*57 _0011_
*58 _0012_
*59 _0013_
*60 _0014_
*61 _0015_
*62 _0016_
*63 _0017_
*64 _0018_
*65 _0019_
*66 _0020_
*67 _0021_
*68 _0022_
*69 _0023_
*70 _0024_
*71 _0025_
*72 _0026_
*73 _0027_
*74 _0028_
*75 _0029_
*76 _0030_
*77 _0031_
*78 _0032_
*79 _0033_
*80 _0034_
*81 _0035_
*82 _0037_
*83 _0038_
*84 _0039_
*85 _0040_
*86 _0041_
*87 _0042_
*88 _0043_
*89 _0044_
*90 _0045_
*91 _0046_
*92 _0047_
*93 _0048_
*94 _0049_
*95 _0050_
*96 _0051_
*97 _0052_
*98 _0053_
*99 _0054_
*100 _0055_
*101 _0056_
*102 _0057_
*103 _0058_
*104 _0059_
*105 _0060_
*106 _0061_
*107 _0062_
*108 _0063_
*109 _0064_
*110 _0065_
*111 _0066_
*112 _0067_
*113 _0068_
*114 _0069_
*115 _0070_
*116 _0071_
*117 _0072_
*118 _0073_
*119 _0074_
*120 _0075_
*121 _0076_
*122 _0077_
*123 _0078_
*124 _0079_
*125 _0080_
*126 _0081_
*127 _0082_
*128 _0083_
*129 _0084_
*130 _0085_
*131 _0086_
*132 _0087_
*133 _0088_
*134 _0089_
*135 _0090_
*136 _0091_
*137 _0092_
*138 _0093_
*139 _0094_
*140 _0095_
*141 _0096_
*142 _0097_
*143 _0098_
*144 _0099_
*145 _0100_
*146 _0101_
*147 _0102_
*148 _0103_
*149 _0104_
*150 _0105_
*151 _0106_
*152 _0107_
*153 _0108_
*154 _0109_
*155 _0110_
*156 _0111_
*157 _0112_
*158 _0113_
*159 _0114_
*160 _0115_
*161 _0116_
*162 _0117_
*163 _0118_
*164 _0119_
*165 _0120_
*166 _0121_
*167 _0122_
*168 _0123_
*169 _0124_
*170 _0125_
*171 _0126_
*172 _0127_
*173 _0128_
*174 _0129_
*175 _0130_
*176 _0131_
*177 _0132_
*178 _0133_
*179 _0134_
*180 _0135_
*181 _0136_
*182 _0137_
*183 _0138_
*184 _0139_
*185 _0140_
*186 _0141_
*187 _0142_
*188 _0143_
*189 _0144_
*190 _0145_
*191 _0146_
*192 _0147_
*193 _0148_
*194 _0149_
*195 _0150_
*196 _0151_
*197 _0152_
*198 _0153_
*199 _0154_
*200 _0155_
*201 _0156_
*202 _0157_
*203 _0158_
*204 _0159_
*205 _0160_
*206 _0161_
*207 _0162_
*208 _0163_
*209 _0164_
*210 _0165_
*211 _0166_
*212 _0167_
*213 _0168_
*214 _0169_
*215 _0170_
*216 _0171_
*217 _0172_
*218 _0173_
*219 _0174_
*220 _0175_
*221 _0176_
*222 _0177_
*223 _0178_
*224 _0179_
*225 _0180_
*226 _0181_
*227 _0182_
*228 _0183_
*229 _0184_
*230 _0185_
*231 _0186_
*232 _0187_
*233 _0188_
*234 _0189_
*235 _0190_
*236 _0191_
*237 _0192_
*238 _0193_
*239 _0194_
*240 _0195_
*241 _0196_
*242 _0197_
*243 _0198_
*244 _0199_
*245 _0200_
*246 _0201_
*247 _0202_
*248 _0203_
*249 _0204_
*250 _0205_
*251 _0206_
*252 _0207_
*253 _0208_
*254 _0209_
*255 _0210_
*256 _0211_
*257 _0212_
*258 _0213_
*259 _0214_
*260 _0215_
*261 _0216_
*262 _0217_
*263 _0218_
*264 _0219_
*265 _0220_
*266 _0221_
*267 _0222_
*268 _0223_
*269 _0224_
*270 _0225_
*271 _0226_
*272 _0227_
*273 _0228_
*274 _0229_
*275 _0230_
*276 _0231_
*277 _0232_
*278 _0233_
*279 _0234_
*280 _0235_
*281 _0236_
*282 _0237_
*283 _0238_
*284 _0239_
*285 _0240_
*286 _0241_
*287 _0242_
*288 _0243_
*289 _0244_
*290 _0245_
*291 _0246_
*292 _0247_
*293 _0248_
*294 _0249_
*295 _0250_
*296 _0251_
*297 _0252_
*298 _0253_
*299 _0254_
*300 _0255_
*301 _0256_
*302 _0257_
*303 _0258_
*304 _0259_
*305 _0260_
*306 _0261_
*307 _0262_
*308 _0263_
*309 _0264_
*310 _0265_
*311 _0266_
*312 _0267_
*313 _0268_
*314 _0269_
*315 _0270_
*316 _0271_
*317 _0272_
*318 _0273_
*319 _0274_
*320 _0275_
*321 _0276_
*322 _0277_
*323 _0278_
*324 _0279_
*325 _0280_
*326 _0281_
*327 _0282_
*328 _0283_
*329 _0284_
*330 _0285_
*331 _0286_
*332 _0287_
*333 _0288_
*334 _0289_
*335 _0290_
*336 _0291_
*337 _0292_
*338 _0293_
*339 _0294_
*340 _0295_
*341 _0296_
*342 _0297_
*343 _0298_
*344 _0299_
*345 _0300_
*346 _0301_
*347 _0302_
*348 _0303_
*349 _0304_
*350 _0305_
*351 _0306_
*352 _0307_
*353 _0308_
*354 _0309_
*355 _0310_
*356 _0311_
*357 _0312_
*358 _0313_
*359 _0314_
*360 _0315_
*361 _0316_
*362 _0317_
*363 _0318_
*364 _0319_
*365 _0320_
*366 _0321_
*367 _0322_
*368 _0323_
*369 _0324_
*370 _0325_
*371 _0326_
*372 _0327_
*373 _0328_
*374 _0329_
*375 _0330_
*376 _0331_
*377 _0332_
*378 _0333_
*379 _0334_
*380 _0335_
*381 _0336_
*382 _0337_
*383 _0338_
*384 _0339_
*385 _0340_
*386 _0341_
*387 _0342_
*388 _0343_
*389 _0344_
*390 _0345_
*391 _0346_
*392 _0347_
*393 _0348_
*394 _0349_
*395 _0350_
*396 _0351_
*397 _0352_
*398 _0353_
*399 _0354_
*400 _0355_
*401 _0356_
*402 _0357_
*403 _0358_
*404 _0359_
*405 _0360_
*406 _0361_
*407 _0362_
*408 _0363_
*409 _0364_
*410 _0365_
*411 _0366_
*412 _0367_
*413 _0368_
*414 _0369_
*415 _0370_
*416 _0371_
*417 _0372_
*418 _0373_
*419 _0374_
*420 _0375_
*421 _0376_
*422 _0377_
*423 _0378_
*424 _0379_
*425 _0380_
*426 _0381_
*427 _0382_
*428 _0383_
*429 _0384_
*430 _0385_
*431 _0386_
*432 _0387_
*433 _0388_
*434 _0389_
*435 _0390_
*436 _0391_
*437 _0392_
*438 _0393_
*439 _0394_
*440 _0395_
*441 _0396_
*442 _0397_
*443 _0398_
*444 _0399_
*445 _0400_
*446 _0401_
*447 _0402_
*448 _0403_
*449 _0404_
*450 _0405_
*451 _0406_
*452 _0407_
*453 _0408_
*454 _0409_
*455 _0410_
*456 _0411_
*457 _0412_
*458 _0413_
*459 _0414_
*460 _0415_
*461 _0416_
*462 _0417_
*463 _0418_
*464 _0419_
*465 _0420_
*466 _0421_
*467 _0422_
*468 _0423_
*469 _0424_
*470 _0425_
*471 _0426_
*472 _0427_
*473 _0428_
*474 _0429_
*475 _0430_
*476 _0431_
*477 _0432_
*478 _0433_
*479 _0434_
*480 _0435_
*481 _0436_
*482 _0437_
*483 _0438_
*484 _0439_
*485 _0440_
*486 _0441_
*487 _0442_
*488 _0443_
*489 _0444_
*490 _0445_
*491 _0446_
*492 _0447_
*493 _0448_
*494 _0449_
*495 _0450_
*496 _0451_
*497 _0452_
*498 _0453_
*499 _0454_
*500 _0455_
*501 _0456_
*502 _0457_
*503 _0458_
*504 _0459_
*505 _0460_
*506 _0461_
*507 _0462_
*508 _0463_
*509 _0464_
*510 _0465_
*511 _0466_
*512 _0467_
*513 _0468_
*514 _0469_
*515 _0470_
*516 _0471_
*517 _0472_
*518 _0473_
*519 _0474_
*520 _0475_
*521 _0476_
*522 _0477_
*523 _0478_
*524 _0479_
*525 _0480_
*526 _0481_
*527 _0482_
*528 _0483_
*529 _0484_
*530 _0485_
*531 _0486_
*532 _0487_
*533 _0488_
*534 _0489_
*535 _0490_
*536 _0491_
*537 _0492_
*538 _0493_
*539 _0494_
*540 _0495_
*541 _0496_
*542 _0497_
*543 _0498_
*544 _0499_
*545 _0500_
*546 _0501_
*547 _0502_
*548 _0503_
*549 _0504_
*550 _0505_
*551 _0506_
*552 _0507_
*553 _0508_
*554 _0509_
*555 _0510_
*556 _0511_
*557 _0512_
*558 _0513_
*559 _0514_
*560 _0515_
*561 _0516_
*562 _0517_
*563 _0518_
*564 _0519_
*565 _0520_
*566 _0521_
*567 _0522_
*568 _0523_
*569 _0524_
*570 _0525_
*571 _0526_
*572 _0527_
*573 _0528_
*574 _0529_
*575 _0530_
*576 _0531_
*577 _0532_
*578 _0533_
*579 _0534_
*580 _0535_
*581 _0536_
*582 _0537_
*583 _0538_
*584 _0539_
*585 _0540_
*586 _0541_
*587 _0542_
*588 _0543_
*589 _0544_
*590 _0545_
*591 _0546_
*592 _0547_
*593 _0548_
*594 _0549_
*595 _0550_
*596 _0551_
*597 _0552_
*598 _0553_
*599 _0554_
*600 _0555_
*601 _0556_
*602 _0557_
*603 _0558_
*604 _0559_
*605 _0560_
*606 _0561_
*607 _0562_
*608 _0563_
*609 _0564_
*610 _0565_
*611 _0566_
*612 _0567_
*613 _0568_
*614 _0569_
*615 _0570_
*616 _0571_
*617 _0572_
*618 _0573_
*619 _0574_
*620 _0575_
*621 _0576_
*622 _0577_
*623 _0578_
*624 _0579_
*625 _0580_
*626 _0581_
*627 _0582_
*628 _0583_
*629 _0584_
*630 _0585_
*631 _0586_
*632 _0587_
*633 _0588_
*634 _0589_
*635 _0590_
*636 _0591_
*637 _0592_
*638 _0593_
*639 _0594_
*640 _0595_
*641 _0596_
*642 _0597_
*643 _0598_
*644 _0599_
*645 _0600_
*646 _0601_
*647 _0602_
*648 _0603_
*649 _0604_
*650 _0605_
*651 _0606_
*652 _0607_
*653 _0608_
*654 _0609_
*655 _0610_
*656 _0611_
*657 _0612_
*658 _0613_
*659 _0614_
*660 _0615_
*661 _0616_
*662 _0617_
*663 _0618_
*664 _0619_
*665 _0620_
*666 _0621_
*667 _0622_
*668 _0623_
*669 _0624_
*670 _0625_
*671 _0626_
*672 _0627_
*673 _0628_
*674 _0629_
*675 _0630_
*676 _0631_
*677 _0632_
*678 _0633_
*679 _0634_
*680 _0635_
*681 _0636_
*682 _0637_
*683 _0638_
*684 _0639_
*685 _0640_
*686 _0641_
*687 _0642_
*688 _0643_
*689 _0644_
*690 _0645_
*691 _0646_
*692 _0647_
*693 _0648_
*694 _0649_
*695 _0650_
*696 _0651_
*697 _0652_
*698 _0653_
*699 _0654_
*700 _0655_
*701 _0656_
*702 _0657_
*703 _0658_
*704 _0659_
*705 _0660_
*706 _0661_
*707 _0662_
*708 _0663_
*709 clknet_0_clk
*710 clknet_3_0__leaf_clk
*711 clknet_3_1__leaf_clk
*712 clknet_3_2__leaf_clk
*713 clknet_3_3__leaf_clk
*714 clknet_3_4__leaf_clk
*715 clknet_3_5__leaf_clk
*716 clknet_3_6__leaf_clk
*717 clknet_3_7__leaf_clk
*718 net1
*719 net23
*720 net25
*721 net26
*722 net27
*723 net28
*724 net29
*725 net30
*726 net31
*727 net32
*728 net33
*729 net34
*730 net35
*731 net36
*732 net37
*733 net38
*734 net39
*735 net40
*736 net41
*737 net42
*738 net43
*739 net44
*740 net45
*741 net46
*742 net47
*743 net48
*744 net49
*745 net50
*746 net51
*747 net52
*748 net53
*749 net54
*750 net55
*751 net56
*752 net57
*753 net58
*754 net59
*755 net60
*756 net61
*757 net62
*758 net63
*759 prelude\.clk_sine
*760 prelude\.clkgen_dac\.clk_o
*761 prelude\.clkgen_dac\.ctr_r\[0\]
*762 prelude\.clkgen_dac\.ctr_r\[1\]
*763 prelude\.clkgen_fs\.clk_o
*764 prelude\.clkgen_fs\.ctr_r\[0\]
*765 prelude\.clkgen_fs\.ctr_r\[10\]
*766 prelude\.clkgen_fs\.ctr_r\[1\]
*767 prelude\.clkgen_fs\.ctr_r\[2\]
*768 prelude\.clkgen_fs\.ctr_r\[3\]
*769 prelude\.clkgen_fs\.ctr_r\[4\]
*770 prelude\.clkgen_fs\.ctr_r\[5\]
*771 prelude\.clkgen_fs\.ctr_r\[6\]
*772 prelude\.clkgen_fs\.ctr_r\[7\]
*773 prelude\.clkgen_fs\.ctr_r\[8\]
*774 prelude\.clkgen_fs\.ctr_r\[9\]
*775 prelude\.clkgen_sin\.ctr_r\[0\]
*776 prelude\.clkgen_sin\.ctr_r\[1\]
*777 prelude\.clkgen_sin\.ctr_r\[2\]
*778 prelude\.clkgen_sin\.ctr_r\[3\]
*779 prelude\.clkgen_sin\.ctr_r\[4\]
*780 prelude\.clkgen_sin\.ctr_r\[5\]
*781 prelude\.clkgen_sin\.ctr_r\[6\]
*782 prelude\.clkgen_sin\.ctr_r\[7\]
*783 prelude\.clkgen_sin\.ctr_r\[8\]
*784 prelude\.clkgen_sin\.maxval\[0\]
*785 prelude\.clkgen_sin\.maxval\[1\]
*786 prelude\.clkgen_sin\.maxval\[2\]
*787 prelude\.clkgen_sin\.maxval\[3\]
*788 prelude\.clkgen_sin\.maxval\[4\]
*789 prelude\.clkgen_sin\.maxval\[5\]
*790 prelude\.clkgen_sin\.maxval\[6\]
*791 prelude\.clkgen_sin\.maxval\[7\]
*792 prelude\.clkgen_sin\.maxval\[8\]
*793 prelude\.ctr_duration\[0\]
*794 prelude\.ctr_duration\[10\]
*795 prelude\.ctr_duration\[11\]
*796 prelude\.ctr_duration\[12\]
*797 prelude\.ctr_duration\[1\]
*798 prelude\.ctr_duration\[2\]
*799 prelude\.ctr_duration\[3\]
*800 prelude\.ctr_duration\[4\]
*801 prelude\.ctr_duration\[5\]
*802 prelude\.ctr_duration\[6\]
*803 prelude\.ctr_duration\[7\]
*804 prelude\.ctr_duration\[8\]
*805 prelude\.ctr_duration\[9\]
*806 prelude\.ctr_pitch_i\[0\]
*807 prelude\.ctr_pitch_i\[1\]
*808 prelude\.ctr_pitch_i\[2\]
*809 prelude\.ctr_pitch_i\[3\]
*810 prelude\.ctr_pitch_i\[4\]
*811 prelude\.dac_neg\.ctr_r\[0\]
*812 prelude\.dac_neg\.ctr_r\[1\]
*813 prelude\.dac_neg\.ctr_r\[2\]
*814 prelude\.dac_neg\.ctr_r\[3\]
*815 prelude\.dac_neg\.ctr_r\[4\]
*816 prelude\.dac_neg\.ctr_r\[5\]
*817 prelude\.dac_neg\.ctr_r\[6\]
*818 prelude\.dac_neg\.ctr_r\[7\]
*819 prelude\.dac_neg\.ctr_r\[8\]
*820 prelude\.dac_neg\.pwm
*821 prelude\.dac_neg\.t_on\[0\]
*822 prelude\.dac_neg\.t_on\[1\]
*823 prelude\.dac_neg\.t_on\[2\]
*824 prelude\.dac_neg\.t_on\[3\]
*825 prelude\.dac_neg\.t_on\[4\]
*826 prelude\.dac_neg\.t_on\[5\]
*827 prelude\.dac_neg\.t_on\[6\]
*828 prelude\.dac_neg\.t_on\[7\]
*829 prelude\.dac_neg\.t_on\[8\]
*830 prelude\.dac_pos\.ctr_r\[0\]
*831 prelude\.dac_pos\.ctr_r\[1\]
*832 prelude\.dac_pos\.ctr_r\[2\]
*833 prelude\.dac_pos\.ctr_r\[3\]
*834 prelude\.dac_pos\.ctr_r\[4\]
*835 prelude\.dac_pos\.ctr_r\[5\]
*836 prelude\.dac_pos\.ctr_r\[6\]
*837 prelude\.dac_pos\.ctr_r\[7\]
*838 prelude\.dac_pos\.ctr_r\[8\]
*839 prelude\.dac_pos\.pwm
*840 prelude\.dac_pos\.t_on\[0\]
*841 prelude\.dac_pos\.t_on\[1\]
*842 prelude\.dac_pos\.t_on\[2\]
*843 prelude\.dac_pos\.t_on\[3\]
*844 prelude\.dac_pos\.t_on\[4\]
*845 prelude\.dac_pos\.t_on\[5\]
*846 prelude\.dac_pos\.t_on\[6\]
*847 prelude\.dac_pos\.t_on\[7\]
*848 prelude\.dac_pos\.t_on\[8\]
*849 prelude\.duration\[0\]
*850 prelude\.duration\[11\]
*851 prelude\.duration\[12\]
*852 prelude\.duration\[4\]
*853 prelude\.duration\[5\]
*854 prelude\.duration\[6\]
*855 prelude\.duration\[7\]
*856 prelude\.duration_reset
*857 prelude\.sine\.ctr_r\[0\]
*858 prelude\.sine\.ctr_r\[1\]
*859 prelude\.sine\.ctr_r\[2\]
*860 prelude\.sine\.ctr_r\[3\]
*861 prelude\.sine\.ctr_r\[4\]
*862 prelude\.sine\.ctr_r\[5\]
*863 prelude\.sine\.ctr_r\[6\]
*864 prelude\.sine\.ctr_r\[7\]
*865 ANTENNA_1
*866 ANTENNA_2
*867 FILLER_0_0_109
*868 FILLER_0_0_113
*869 FILLER_0_0_125
*870 FILLER_0_0_137
*871 FILLER_0_0_141
*872 FILLER_0_0_146
*873 FILLER_0_0_15
*874 FILLER_0_0_158
*875 FILLER_0_0_164
*876 FILLER_0_0_169
*877 FILLER_0_0_187
*878 FILLER_0_0_195
*879 FILLER_0_0_197
*880 FILLER_0_0_209
*881 FILLER_0_0_221
*882 FILLER_0_0_225
*883 FILLER_0_0_237
*884 FILLER_0_0_249
*885 FILLER_0_0_253
*886 FILLER_0_0_265
*887 FILLER_0_0_27
*888 FILLER_0_0_277
*889 FILLER_0_0_281
*890 FILLER_0_0_29
*891 FILLER_0_0_293
*892 FILLER_0_0_3
*893 FILLER_0_0_305
*894 FILLER_0_0_309
*895 FILLER_0_0_321
*896 FILLER_0_0_333
*897 FILLER_0_0_41
*898 FILLER_0_0_53
*899 FILLER_0_0_57
*900 FILLER_0_0_69
*901 FILLER_0_0_81
*902 FILLER_0_0_85
*903 FILLER_0_0_97
*904 FILLER_0_10_109
*905 FILLER_0_10_138
*906 FILLER_0_10_15
*907 FILLER_0_10_165
*908 FILLER_0_10_173
*909 FILLER_0_10_193
*910 FILLER_0_10_197
*911 FILLER_0_10_204
*912 FILLER_0_10_221
*913 FILLER_0_10_236
*914 FILLER_0_10_244
*915 FILLER_0_10_249
*916 FILLER_0_10_253
*917 FILLER_0_10_257
*918 FILLER_0_10_27
*919 FILLER_0_10_286
*920 FILLER_0_10_29
*921 FILLER_0_10_3
*922 FILLER_0_10_309
*923 FILLER_0_10_317
*924 FILLER_0_10_322
*925 FILLER_0_10_334
*926 FILLER_0_10_41
*927 FILLER_0_10_53
*928 FILLER_0_10_65
*929 FILLER_0_10_77
*930 FILLER_0_10_83
*931 FILLER_0_10_85
*932 FILLER_0_11_105
*933 FILLER_0_11_111
*934 FILLER_0_11_123
*935 FILLER_0_11_135
*936 FILLER_0_11_146
*937 FILLER_0_11_15
*938 FILLER_0_11_163
*939 FILLER_0_11_167
*940 FILLER_0_11_169
*941 FILLER_0_11_181
*942 FILLER_0_11_203
*943 FILLER_0_11_207
*944 FILLER_0_11_231
*945 FILLER_0_11_256
*946 FILLER_0_11_27
*947 FILLER_0_11_273
*948 FILLER_0_11_279
*949 FILLER_0_11_297
*950 FILLER_0_11_3
*951 FILLER_0_11_326
*952 FILLER_0_11_39
*953 FILLER_0_11_51
*954 FILLER_0_11_55
*955 FILLER_0_11_57
*956 FILLER_0_11_69
*957 FILLER_0_11_81
*958 FILLER_0_11_93
*959 FILLER_0_12_109
*960 FILLER_0_12_122
*961 FILLER_0_12_130
*962 FILLER_0_12_139
*963 FILLER_0_12_15
*964 FILLER_0_12_161
*965 FILLER_0_12_174
*966 FILLER_0_12_186
*967 FILLER_0_12_195
*968 FILLER_0_12_200
*969 FILLER_0_12_214
*970 FILLER_0_12_226
*971 FILLER_0_12_234
*972 FILLER_0_12_244
*973 FILLER_0_12_261
*974 FILLER_0_12_27
*975 FILLER_0_12_280
*976 FILLER_0_12_286
*977 FILLER_0_12_29
*978 FILLER_0_12_295
*979 FILLER_0_12_3
*980 FILLER_0_12_307
*981 FILLER_0_12_309
*982 FILLER_0_12_317
*983 FILLER_0_12_334
*984 FILLER_0_12_41
*985 FILLER_0_12_53
*986 FILLER_0_12_65
*987 FILLER_0_12_77
*988 FILLER_0_12_83
*989 FILLER_0_12_85
*990 FILLER_0_12_97
*991 FILLER_0_13_105
*992 FILLER_0_13_111
*993 FILLER_0_13_113
*994 FILLER_0_13_117
*995 FILLER_0_13_134
*996 FILLER_0_13_146
*997 FILLER_0_13_15
*998 FILLER_0_13_164
*999 FILLER_0_13_185
*1000 FILLER_0_13_205
*1001 FILLER_0_13_223
*1002 FILLER_0_13_241
*1003 FILLER_0_13_245
*1004 FILLER_0_13_27
*1005 FILLER_0_13_270
*1006 FILLER_0_13_278
*1007 FILLER_0_13_281
*1008 FILLER_0_13_293
*1009 FILLER_0_13_3
*1010 FILLER_0_13_302
*1011 FILLER_0_13_310
*1012 FILLER_0_13_319
*1013 FILLER_0_13_331
*1014 FILLER_0_13_39
*1015 FILLER_0_13_51
*1016 FILLER_0_13_55
*1017 FILLER_0_13_57
*1018 FILLER_0_13_69
*1019 FILLER_0_13_81
*1020 FILLER_0_13_93
*1021 FILLER_0_14_109
*1022 FILLER_0_14_121
*1023 FILLER_0_14_133
*1024 FILLER_0_14_139
*1025 FILLER_0_14_141
*1026 FILLER_0_14_15
*1027 FILLER_0_14_159
*1028 FILLER_0_14_165
*1029 FILLER_0_14_177
*1030 FILLER_0_14_189
*1031 FILLER_0_14_195
*1032 FILLER_0_14_197
*1033 FILLER_0_14_201
*1034 FILLER_0_14_208
*1035 FILLER_0_14_220
*1036 FILLER_0_14_232
*1037 FILLER_0_14_244
*1038 FILLER_0_14_260
*1039 FILLER_0_14_268
*1040 FILLER_0_14_27
*1041 FILLER_0_14_279
*1042 FILLER_0_14_29
*1043 FILLER_0_14_290
*1044 FILLER_0_14_299
*1045 FILLER_0_14_3
*1046 FILLER_0_14_307
*1047 FILLER_0_14_325
*1048 FILLER_0_14_333
*1049 FILLER_0_14_41
*1050 FILLER_0_14_53
*1051 FILLER_0_14_65
*1052 FILLER_0_14_77
*1053 FILLER_0_14_83
*1054 FILLER_0_14_85
*1055 FILLER_0_14_97
*1056 FILLER_0_15_101
*1057 FILLER_0_15_109
*1058 FILLER_0_15_113
*1059 FILLER_0_15_125
*1060 FILLER_0_15_137
*1061 FILLER_0_15_145
*1062 FILLER_0_15_15
*1063 FILLER_0_15_151
*1064 FILLER_0_15_163
*1065 FILLER_0_15_167
*1066 FILLER_0_15_169
*1067 FILLER_0_15_181
*1068 FILLER_0_15_193
*1069 FILLER_0_15_201
*1070 FILLER_0_15_214
*1071 FILLER_0_15_220
*1072 FILLER_0_15_225
*1073 FILLER_0_15_236
*1074 FILLER_0_15_244
*1075 FILLER_0_15_254
*1076 FILLER_0_15_262
*1077 FILLER_0_15_27
*1078 FILLER_0_15_274
*1079 FILLER_0_15_281
*1080 FILLER_0_15_293
*1081 FILLER_0_15_3
*1082 FILLER_0_15_304
*1083 FILLER_0_15_310
*1084 FILLER_0_15_323
*1085 FILLER_0_15_329
*1086 FILLER_0_15_39
*1087 FILLER_0_15_51
*1088 FILLER_0_15_55
*1089 FILLER_0_15_57
*1090 FILLER_0_15_69
*1091 FILLER_0_15_81
*1092 FILLER_0_16_119
*1093 FILLER_0_16_131
*1094 FILLER_0_16_139
*1095 FILLER_0_16_141
*1096 FILLER_0_16_15
*1097 FILLER_0_16_153
*1098 FILLER_0_16_165
*1099 FILLER_0_16_177
*1100 FILLER_0_16_189
*1101 FILLER_0_16_195
*1102 FILLER_0_16_197
*1103 FILLER_0_16_205
*1104 FILLER_0_16_212
*1105 FILLER_0_16_216
*1106 FILLER_0_16_224
*1107 FILLER_0_16_240
*1108 FILLER_0_16_244
*1109 FILLER_0_16_249
*1110 FILLER_0_16_253
*1111 FILLER_0_16_263
*1112 FILLER_0_16_27
*1113 FILLER_0_16_272
*1114 FILLER_0_16_29
*1115 FILLER_0_16_298
*1116 FILLER_0_16_3
*1117 FILLER_0_16_306
*1118 FILLER_0_16_309
*1119 FILLER_0_16_317
*1120 FILLER_0_16_321
*1121 FILLER_0_16_329
*1122 FILLER_0_16_41
*1123 FILLER_0_16_53
*1124 FILLER_0_16_65
*1125 FILLER_0_16_69
*1126 FILLER_0_16_81
*1127 FILLER_0_16_85
*1128 FILLER_0_16_91
*1129 FILLER_0_16_96
*1130 FILLER_0_17_103
*1131 FILLER_0_17_111
*1132 FILLER_0_17_113
*1133 FILLER_0_17_125
*1134 FILLER_0_17_137
*1135 FILLER_0_17_149
*1136 FILLER_0_17_15
*1137 FILLER_0_17_161
*1138 FILLER_0_17_167
*1139 FILLER_0_17_169
*1140 FILLER_0_17_181
*1141 FILLER_0_17_193
*1142 FILLER_0_17_202
*1143 FILLER_0_17_210
*1144 FILLER_0_17_223
*1145 FILLER_0_17_225
*1146 FILLER_0_17_229
*1147 FILLER_0_17_235
*1148 FILLER_0_17_263
*1149 FILLER_0_17_27
*1150 FILLER_0_17_275
*1151 FILLER_0_17_279
*1152 FILLER_0_17_281
*1153 FILLER_0_17_293
*1154 FILLER_0_17_297
*1155 FILLER_0_17_3
*1156 FILLER_0_17_308
*1157 FILLER_0_17_316
*1158 FILLER_0_17_320
*1159 FILLER_0_17_332
*1160 FILLER_0_17_39
*1161 FILLER_0_17_57
*1162 FILLER_0_17_79
*1163 FILLER_0_17_85
*1164 FILLER_0_17_92
*1165 FILLER_0_18_133
*1166 FILLER_0_18_139
*1167 FILLER_0_18_141
*1168 FILLER_0_18_15
*1169 FILLER_0_18_153
*1170 FILLER_0_18_165
*1171 FILLER_0_18_177
*1172 FILLER_0_18_189
*1173 FILLER_0_18_195
*1174 FILLER_0_18_213
*1175 FILLER_0_18_225
*1176 FILLER_0_18_240
*1177 FILLER_0_18_245
*1178 FILLER_0_18_251
*1179 FILLER_0_18_253
*1180 FILLER_0_18_27
*1181 FILLER_0_18_272
*1182 FILLER_0_18_280
*1183 FILLER_0_18_284
*1184 FILLER_0_18_29
*1185 FILLER_0_18_296
*1186 FILLER_0_18_3
*1187 FILLER_0_18_300
*1188 FILLER_0_18_317
*1189 FILLER_0_18_34
*1190 FILLER_0_18_42
*1191 FILLER_0_18_52
*1192 FILLER_0_18_62
*1193 FILLER_0_18_67
*1194 FILLER_0_18_79
*1195 FILLER_0_18_83
*1196 FILLER_0_18_85
*1197 FILLER_0_18_89
*1198 FILLER_0_19_107
*1199 FILLER_0_19_111
*1200 FILLER_0_19_113
*1201 FILLER_0_19_129
*1202 FILLER_0_19_149
*1203 FILLER_0_19_15
*1204 FILLER_0_19_161
*1205 FILLER_0_19_167
*1206 FILLER_0_19_169
*1207 FILLER_0_19_181
*1208 FILLER_0_19_193
*1209 FILLER_0_19_205
*1210 FILLER_0_19_221
*1211 FILLER_0_19_241
*1212 FILLER_0_19_245
*1213 FILLER_0_19_251
*1214 FILLER_0_19_257
*1215 FILLER_0_19_261
*1216 FILLER_0_19_297
*1217 FILLER_0_19_3
*1218 FILLER_0_19_305
*1219 FILLER_0_19_317
*1220 FILLER_0_19_32
*1221 FILLER_0_19_329
*1222 FILLER_0_19_43
*1223 FILLER_0_19_51
*1224 FILLER_0_19_55
*1225 FILLER_0_19_57
*1226 FILLER_0_19_64
*1227 FILLER_0_19_76
*1228 FILLER_0_19_82
*1229 FILLER_0_19_93
*1230 FILLER_0_1_105
*1231 FILLER_0_1_111
*1232 FILLER_0_1_113
*1233 FILLER_0_1_125
*1234 FILLER_0_1_15
*1235 FILLER_0_1_156
*1236 FILLER_0_1_209
*1237 FILLER_0_1_221
*1238 FILLER_0_1_225
*1239 FILLER_0_1_237
*1240 FILLER_0_1_256
*1241 FILLER_0_1_268
*1242 FILLER_0_1_27
*1243 FILLER_0_1_287
*1244 FILLER_0_1_293
*1245 FILLER_0_1_3
*1246 FILLER_0_1_310
*1247 FILLER_0_1_322
*1248 FILLER_0_1_334
*1249 FILLER_0_1_39
*1250 FILLER_0_1_51
*1251 FILLER_0_1_55
*1252 FILLER_0_1_57
*1253 FILLER_0_1_69
*1254 FILLER_0_1_81
*1255 FILLER_0_1_93
*1256 FILLER_0_20_102
*1257 FILLER_0_20_114
*1258 FILLER_0_20_122
*1259 FILLER_0_20_13
*1260 FILLER_0_20_133
*1261 FILLER_0_20_139
*1262 FILLER_0_20_141
*1263 FILLER_0_20_153
*1264 FILLER_0_20_165
*1265 FILLER_0_20_189
*1266 FILLER_0_20_195
*1267 FILLER_0_20_197
*1268 FILLER_0_20_209
*1269 FILLER_0_20_221
*1270 FILLER_0_20_229
*1271 FILLER_0_20_25
*1272 FILLER_0_20_261
*1273 FILLER_0_20_269
*1274 FILLER_0_20_286
*1275 FILLER_0_20_29
*1276 FILLER_0_20_292
*1277 FILLER_0_20_298
*1278 FILLER_0_20_3
*1279 FILLER_0_20_307
*1280 FILLER_0_20_317
*1281 FILLER_0_20_329
*1282 FILLER_0_20_77
*1283 FILLER_0_20_83
*1284 FILLER_0_20_9
*1285 FILLER_0_20_92
*1286 FILLER_0_20_98
*1287 FILLER_0_21_101
*1288 FILLER_0_21_110
*1289 FILLER_0_21_113
*1290 FILLER_0_21_130
*1291 FILLER_0_21_134
*1292 FILLER_0_21_151
*1293 FILLER_0_21_166
*1294 FILLER_0_21_186
*1295 FILLER_0_21_194
*1296 FILLER_0_21_201
*1297 FILLER_0_21_225
*1298 FILLER_0_21_23
*1299 FILLER_0_21_233
*1300 FILLER_0_21_254
*1301 FILLER_0_21_276
*1302 FILLER_0_21_281
*1303 FILLER_0_21_294
*1304 FILLER_0_21_3
*1305 FILLER_0_21_306
*1306 FILLER_0_21_327
*1307 FILLER_0_21_37
*1308 FILLER_0_21_41
*1309 FILLER_0_21_45
*1310 FILLER_0_21_54
*1311 FILLER_0_21_57
*1312 FILLER_0_21_63
*1313 FILLER_0_21_69
*1314 FILLER_0_21_73
*1315 FILLER_0_21_81
*1316 FILLER_0_21_93
*1317 FILLER_0_22_114
*1318 FILLER_0_22_126
*1319 FILLER_0_22_138
*1320 FILLER_0_22_141
*1321 FILLER_0_22_15
*1322 FILLER_0_22_150
*1323 FILLER_0_22_166
*1324 FILLER_0_22_174
*1325 FILLER_0_22_193
*1326 FILLER_0_22_203
*1327 FILLER_0_22_210
*1328 FILLER_0_22_214
*1329 FILLER_0_22_218
*1330 FILLER_0_22_222
*1331 FILLER_0_22_239
*1332 FILLER_0_22_251
*1333 FILLER_0_22_253
*1334 FILLER_0_22_26
*1335 FILLER_0_22_265
*1336 FILLER_0_22_282
*1337 FILLER_0_22_286
*1338 FILLER_0_22_29
*1339 FILLER_0_22_3
*1340 FILLER_0_22_309
*1341 FILLER_0_22_321
*1342 FILLER_0_22_333
*1343 FILLER_0_22_34
*1344 FILLER_0_22_40
*1345 FILLER_0_22_62
*1346 FILLER_0_22_75
*1347 FILLER_0_22_85
*1348 FILLER_0_22_89
*1349 FILLER_0_22_97
*1350 FILLER_0_23_106
*1351 FILLER_0_23_113
*1352 FILLER_0_23_135
*1353 FILLER_0_23_141
*1354 FILLER_0_23_15
*1355 FILLER_0_23_150
*1356 FILLER_0_23_154
*1357 FILLER_0_23_160
*1358 FILLER_0_23_169
*1359 FILLER_0_23_179
*1360 FILLER_0_23_186
*1361 FILLER_0_23_194
*1362 FILLER_0_23_208
*1363 FILLER_0_23_214
*1364 FILLER_0_23_219
*1365 FILLER_0_23_223
*1366 FILLER_0_23_232
*1367 FILLER_0_23_266
*1368 FILLER_0_23_278
*1369 FILLER_0_23_3
*1370 FILLER_0_23_300
*1371 FILLER_0_23_317
*1372 FILLER_0_23_329
*1373 FILLER_0_23_39
*1374 FILLER_0_23_47
*1375 FILLER_0_23_55
*1376 FILLER_0_23_57
*1377 FILLER_0_23_68
*1378 FILLER_0_23_78
*1379 FILLER_0_23_86
*1380 FILLER_0_23_94
*1381 FILLER_0_24_112
*1382 FILLER_0_24_125
*1383 FILLER_0_24_134
*1384 FILLER_0_24_141
*1385 FILLER_0_24_158
*1386 FILLER_0_24_164
*1387 FILLER_0_24_188
*1388 FILLER_0_24_203
*1389 FILLER_0_24_21
*1390 FILLER_0_24_215
*1391 FILLER_0_24_220
*1392 FILLER_0_24_228
*1393 FILLER_0_24_249
*1394 FILLER_0_24_253
*1395 FILLER_0_24_267
*1396 FILLER_0_24_27
*1397 FILLER_0_24_29
*1398 FILLER_0_24_291
*1399 FILLER_0_24_3
*1400 FILLER_0_24_303
*1401 FILLER_0_24_307
*1402 FILLER_0_24_312
*1403 FILLER_0_24_324
*1404 FILLER_0_24_33
*1405 FILLER_0_24_332
*1406 FILLER_0_24_37
*1407 FILLER_0_24_43
*1408 FILLER_0_24_51
*1409 FILLER_0_24_59
*1410 FILLER_0_24_78
*1411 FILLER_0_25_104
*1412 FILLER_0_25_108
*1413 FILLER_0_25_11
*1414 FILLER_0_25_121
*1415 FILLER_0_25_140
*1416 FILLER_0_25_15
*1417 FILLER_0_25_155
*1418 FILLER_0_25_159
*1419 FILLER_0_25_167
*1420 FILLER_0_25_169
*1421 FILLER_0_25_181
*1422 FILLER_0_25_197
*1423 FILLER_0_25_205
*1424 FILLER_0_25_218
*1425 FILLER_0_25_225
*1426 FILLER_0_25_232
*1427 FILLER_0_25_244
*1428 FILLER_0_25_248
*1429 FILLER_0_25_256
*1430 FILLER_0_25_281
*1431 FILLER_0_25_293
*1432 FILLER_0_25_3
*1433 FILLER_0_25_312
*1434 FILLER_0_25_318
*1435 FILLER_0_25_57
*1436 FILLER_0_25_62
*1437 FILLER_0_25_7
*1438 FILLER_0_25_74
*1439 FILLER_0_25_82
*1440 FILLER_0_25_86
*1441 FILLER_0_25_96
*1442 FILLER_0_26_101
*1443 FILLER_0_26_119
*1444 FILLER_0_26_123
*1445 FILLER_0_26_129
*1446 FILLER_0_26_137
*1447 FILLER_0_26_141
*1448 FILLER_0_26_145
*1449 FILLER_0_26_154
*1450 FILLER_0_26_158
*1451 FILLER_0_26_184
*1452 FILLER_0_26_194
*1453 FILLER_0_26_200
*1454 FILLER_0_26_206
*1455 FILLER_0_26_220
*1456 FILLER_0_26_228
*1457 FILLER_0_26_243
*1458 FILLER_0_26_253
*1459 FILLER_0_26_261
*1460 FILLER_0_26_273
*1461 FILLER_0_26_285
*1462 FILLER_0_26_3
*1463 FILLER_0_26_300
*1464 FILLER_0_26_325
*1465 FILLER_0_26_333
*1466 FILLER_0_26_38
*1467 FILLER_0_26_50
*1468 FILLER_0_26_80
*1469 FILLER_0_27_107
*1470 FILLER_0_27_11
*1471 FILLER_0_27_111
*1472 FILLER_0_27_113
*1473 FILLER_0_27_124
*1474 FILLER_0_27_132
*1475 FILLER_0_27_149
*1476 FILLER_0_27_161
*1477 FILLER_0_27_167
*1478 FILLER_0_27_169
*1479 FILLER_0_27_181
*1480 FILLER_0_27_193
*1481 FILLER_0_27_200
*1482 FILLER_0_27_218
*1483 FILLER_0_27_22
*1484 FILLER_0_27_225
*1485 FILLER_0_27_246
*1486 FILLER_0_27_252
*1487 FILLER_0_27_266
*1488 FILLER_0_27_277
*1489 FILLER_0_27_293
*1490 FILLER_0_27_3
*1491 FILLER_0_27_301
*1492 FILLER_0_27_307
*1493 FILLER_0_27_313
*1494 FILLER_0_27_318
*1495 FILLER_0_27_324
*1496 FILLER_0_27_333
*1497 FILLER_0_27_54
*1498 FILLER_0_27_57
*1499 FILLER_0_27_83
*1500 FILLER_0_27_95
*1501 FILLER_0_28_100
*1502 FILLER_0_28_106
*1503 FILLER_0_28_115
*1504 FILLER_0_28_125
*1505 FILLER_0_28_137
*1506 FILLER_0_28_141
*1507 FILLER_0_28_145
*1508 FILLER_0_28_154
*1509 FILLER_0_28_176
*1510 FILLER_0_28_188
*1511 FILLER_0_28_197
*1512 FILLER_0_28_20
*1513 FILLER_0_28_209
*1514 FILLER_0_28_215
*1515 FILLER_0_28_220
*1516 FILLER_0_28_230
*1517 FILLER_0_28_242
*1518 FILLER_0_28_261
*1519 FILLER_0_28_269
*1520 FILLER_0_28_27
*1521 FILLER_0_28_281
*1522 FILLER_0_28_289
*1523 FILLER_0_28_29
*1524 FILLER_0_28_3
*1525 FILLER_0_28_309
*1526 FILLER_0_28_41
*1527 FILLER_0_28_53
*1528 FILLER_0_28_69
*1529 FILLER_0_28_77
*1530 FILLER_0_28_81
*1531 FILLER_0_28_85
*1532 FILLER_0_28_94
*1533 FILLER_0_29_113
*1534 FILLER_0_29_124
*1535 FILLER_0_29_132
*1536 FILLER_0_29_141
*1537 FILLER_0_29_149
*1538 FILLER_0_29_15
*1539 FILLER_0_29_155
*1540 FILLER_0_29_167
*1541 FILLER_0_29_212
*1542 FILLER_0_29_233
*1543 FILLER_0_29_250
*1544 FILLER_0_29_259
*1545 FILLER_0_29_271
*1546 FILLER_0_29_278
*1547 FILLER_0_29_289
*1548 FILLER_0_29_295
*1549 FILLER_0_29_299
*1550 FILLER_0_29_3
*1551 FILLER_0_29_307
*1552 FILLER_0_29_313
*1553 FILLER_0_29_325
*1554 FILLER_0_29_333
*1555 FILLER_0_29_40
*1556 FILLER_0_29_48
*1557 FILLER_0_29_52
*1558 FILLER_0_29_73
*1559 FILLER_0_29_90
*1560 FILLER_0_2_109
*1561 FILLER_0_2_117
*1562 FILLER_0_2_134
*1563 FILLER_0_2_15
*1564 FILLER_0_2_151
*1565 FILLER_0_2_157
*1566 FILLER_0_2_165
*1567 FILLER_0_2_170
*1568 FILLER_0_2_176
*1569 FILLER_0_2_181
*1570 FILLER_0_2_195
*1571 FILLER_0_2_200
*1572 FILLER_0_2_208
*1573 FILLER_0_2_212
*1574 FILLER_0_2_220
*1575 FILLER_0_2_240
*1576 FILLER_0_2_253
*1577 FILLER_0_2_27
*1578 FILLER_0_2_272
*1579 FILLER_0_2_29
*1580 FILLER_0_2_299
*1581 FILLER_0_2_3
*1582 FILLER_0_2_307
*1583 FILLER_0_2_309
*1584 FILLER_0_2_316
*1585 FILLER_0_2_328
*1586 FILLER_0_2_334
*1587 FILLER_0_2_41
*1588 FILLER_0_2_53
*1589 FILLER_0_2_65
*1590 FILLER_0_2_77
*1591 FILLER_0_2_83
*1592 FILLER_0_2_85
*1593 FILLER_0_2_97
*1594 FILLER_0_30_131
*1595 FILLER_0_30_141
*1596 FILLER_0_30_151
*1597 FILLER_0_30_156
*1598 FILLER_0_30_168
*1599 FILLER_0_30_180
*1600 FILLER_0_30_19
*1601 FILLER_0_30_195
*1602 FILLER_0_30_197
*1603 FILLER_0_30_215
*1604 FILLER_0_30_227
*1605 FILLER_0_30_23
*1606 FILLER_0_30_235
*1607 FILLER_0_30_246
*1608 FILLER_0_30_253
*1609 FILLER_0_30_27
*1610 FILLER_0_30_270
*1611 FILLER_0_30_278
*1612 FILLER_0_30_290
*1613 FILLER_0_30_298
*1614 FILLER_0_30_307
*1615 FILLER_0_30_37
*1616 FILLER_0_30_44
*1617 FILLER_0_30_55
*1618 FILLER_0_30_63
*1619 FILLER_0_30_68
*1620 FILLER_0_30_80
*1621 FILLER_0_30_85
*1622 FILLER_0_30_89
*1623 FILLER_0_30_93
*1624 FILLER_0_31_10
*1625 FILLER_0_31_111
*1626 FILLER_0_31_113
*1627 FILLER_0_31_122
*1628 FILLER_0_31_136
*1629 FILLER_0_31_140
*1630 FILLER_0_31_148
*1631 FILLER_0_31_164
*1632 FILLER_0_31_175
*1633 FILLER_0_31_18
*1634 FILLER_0_31_190
*1635 FILLER_0_31_202
*1636 FILLER_0_31_214
*1637 FILLER_0_31_222
*1638 FILLER_0_31_233
*1639 FILLER_0_31_24
*1640 FILLER_0_31_251
*1641 FILLER_0_31_263
*1642 FILLER_0_31_267
*1643 FILLER_0_31_271
*1644 FILLER_0_31_279
*1645 FILLER_0_31_288
*1646 FILLER_0_31_3
*1647 FILLER_0_31_30
*1648 FILLER_0_31_300
*1649 FILLER_0_31_316
*1650 FILLER_0_31_332
*1651 FILLER_0_31_36
*1652 FILLER_0_31_53
*1653 FILLER_0_31_57
*1654 FILLER_0_31_85
*1655 FILLER_0_32_109
*1656 FILLER_0_32_124
*1657 FILLER_0_32_138
*1658 FILLER_0_32_141
*1659 FILLER_0_32_152
*1660 FILLER_0_32_160
*1661 FILLER_0_32_169
*1662 FILLER_0_32_177
*1663 FILLER_0_32_194
*1664 FILLER_0_32_197
*1665 FILLER_0_32_20