*SPEF "ieee 1481-1999"
*DESIGN "tt_um_soundgen"
*DATE "09:58:43 Wednesday April 10, 2024"
*VENDOR "The OpenROAD Project"
*PROGRAM "OpenROAD"
*VERSION "0889970d1790a2617e69f253221b8bd7626e51dc"
*DESIGN_FLOW "NAME_SCOPE LOCAL" "PIN_CAP NONE"
*DIVIDER /
*DELIMITER :
*BUS_DELIMITER []
*T_UNIT 1 NS
*C_UNIT 1 PF
*R_UNIT 1 OHM
*L_UNIT 1 HENRY

*NAME_MAP
*3 clk
*4 ena
*5 rst_n
*6 ui_in[0]
*7 ui_in[1]
*8 ui_in[2]
*9 ui_in[3]
*10 ui_in[4]
*11 ui_in[5]
*12 ui_in[6]
*13 ui_in[7]
*14 uio_in[0]
*15 uio_in[1]
*16 uio_in[2]
*17 uio_in[3]
*18 uio_in[4]
*19 uio_in[5]
*20 uio_in[6]
*21 uio_in[7]
*22 net25
*23 net3
*24 net4
*25 net5
*26 net6
*27 net7
*28 net8
*29 net9
*30 net10
*31 net11
*32 net12
*33 net13
*34 net14
*35 net15
*36 uio_out[6]
*37 uio_out[7]
*38 net16
*39 net17
*40 net18
*41 net19
*42 net20
*43 net21
*44 net22
*45 net23
*46 _0000_
*47 _0001_
*48 _0002_
*49 _0003_
*50 _0004_
*51 _0005_
*52 _0006_
*53 _0007_
*54 _0008_
*55 _0009_
*56 _0010_
*57 _0011_
*58 _0012_
*59 _0013_
*60 _0014_
*61 _0015_
*62 _0016_
*63 _0017_
*64 _0018_
*65 _0019_
*66 _0020_
*67 _0021_
*68 _0022_
*69 _0023_
*70 _0024_
*71 _0025_
*72 _0026_
*73 _0027_
*74 _0028_
*75 _0029_
*76 _0030_
*77 _0031_
*78 _0032_
*79 _0033_
*80 _0034_
*81 _0035_
*82 _0037_
*83 _0038_
*84 _0039_
*85 _0040_
*86 _0041_
*87 _0042_
*88 _0043_
*89 _0044_
*90 _0045_
*91 _0046_
*92 _0047_
*93 _0048_
*94 _0049_
*95 _0050_
*96 _0051_
*97 _0052_
*98 _0053_
*99 _0054_
*100 _0055_
*101 _0056_
*102 _0057_
*103 _0058_
*104 _0059_
*105 _0060_
*106 _0061_
*107 _0062_
*108 _0063_
*109 _0064_
*110 _0065_
*111 _0066_
*112 _0067_
*113 _0068_
*114 _0069_
*115 _0070_
*116 _0071_
*117 _0072_
*118 _0073_
*119 _0074_
*120 _0075_
*121 _0076_
*122 _0077_
*123 _0078_
*124 _0079_
*125 _0080_
*126 _0081_
*127 _0082_
*128 _0083_
*129 _0084_
*130 _0085_
*131 _0086_
*132 _0087_
*133 _0088_
*134 _0089_
*135 _0090_
*136 _0091_
*137 _0092_
*138 _0093_
*139 _0094_
*140 _0095_
*141 _0096_
*142 _0097_
*143 _0098_
*144 _0099_
*145 _0100_
*146 _0101_
*147 _0102_
*148 _0103_
*149 _0104_
*150 _0105_
*151 _0106_
*152 _0107_
*153 _0108_
*154 _0109_
*155 _0110_
*156 _0111_
*157 _0112_
*158 _0113_
*159 _0114_
*160 _0115_
*161 _0116_
*162 _0117_
*163 _0118_
*164 _0119_
*165 _0120_
*166 _0121_
*167 _0122_
*168 _0123_
*169 _0124_
*170 _0125_
*171 _0126_
*172 _0127_
*173 _0128_
*174 _0129_
*175 _0130_
*176 _0131_
*177 _0132_
*178 _0133_
*179 _0134_
*180 _0135_
*181 _0136_
*182 _0137_
*183 _0138_
*184 _0139_
*185 _0140_
*186 _0141_
*187 _0142_
*188 _0143_
*189 _0144_
*190 _0145_
*191 _0146_
*192 _0147_
*193 _0148_
*194 _0149_
*195 _0150_
*196 _0151_
*197 _0152_
*198 _0153_
*199 _0154_
*200 _0155_
*201 _0156_
*202 _0157_
*203 _0158_
*204 _0159_
*205 _0160_
*206 _0161_
*207 _0162_
*208 _0163_
*209 _0164_
*210 _0165_
*211 _0166_
*212 _0167_
*213 _0168_
*214 _0169_
*215 _0170_
*216 _0171_
*217 _0172_
*218 _0173_
*219 _0174_
*220 _0175_
*221 _0176_
*222 _0177_
*223 _0178_
*224 _0179_
*225 _0180_
*226 _0181_
*227 _0182_
*228 _0183_
*229 _0184_
*230 _0185_
*231 _0186_
*232 _0187_
*233 _0188_
*234 _0189_
*235 _0190_
*236 _0191_
*237 _0192_
*238 _0193_
*239 _0194_
*240 _0195_
*241 _0196_
*242 _0197_
*243 _0198_
*244 _0199_
*245 _0200_
*246 _0201_
*247 _0202_
*248 _0203_
*249 _0204_
*250 _0205_
*251 _0206_
*252 _0207_
*253 _0208_
*254 _0209_
*255 _0210_
*256 _0211_
*257 _0212_
*258 _0213_
*259 _0214_
*260 _0215_
*261 _0216_
*262 _0217_
*263 _0218_
*264 _0219_
*265 _0220_
*266 _0221_
*267 _0222_
*268 _0223_
*269 _0224_
*270 _0225_
*271 _0226_
*272 _0227_
*273 _0228_
*274 _0229_
*275 _0230_
*276 _0231_
*277 _0232_
*278 _0233_
*279 _0234_
*280 _0235_
*281 _0236_
*282 _0237_
*283 _0238_
*284 _0239_
*285 _0240_
*286 _0241_
*287 _0242_
*288 _0243_
*289 _0244_
*290 _0245_
*291 _0246_
*292 _0247_
*293 _0248_
*294 _0249_
*295 _0250_
*296 _0251_
*297 _0252_
*298 _0253_
*299 _0254_
*300 _0255_
*301 _0256_
*302 _0257_
*303 _0258_
*304 _0259_
*305 _0260_
*306 _0261_
*307 _0262_
*308 _0263_
*309 _0264_
*310 _0265_
*311 _0266_
*312 _0267_
*313 _0268_
*314 _0269_
*315 _0270_
*316 _0271_
*317 _0272_
*318 _0273_
*319 _0274_
*320 _0275_
*321 _0276_
*322 _0277_
*323 _0278_
*324 _0279_
*325 _0280_
*326 _0281_
*327 _0282_
*328 _0283_
*329 _0284_
*330 _0285_
*331 _0286_
*332 _0287_
*333 _0288_
*334 _0289_
*335 _0290_
*336 _0291_
*337 _0292_
*338 _0293_
*339 _0294_
*340 _0295_
*341 _0296_
*342 _0297_
*343 _0298_
*344 _0299_
*345 _0300_
*346 _0301_
*347 _0302_
*348 _0303_
*349 _0304_
*350 _0305_
*351 _0306_
*352 _0307_
*353 _0308_
*354 _0309_
*355 _0310_
*356 _0311_
*357 _0312_
*358 _0313_
*359 _0314_
*360 _0315_
*361 _0316_
*362 _0317_
*363 _0318_
*364 _0319_
*365 _0320_
*366 _0321_
*367 _0322_
*368 _0323_
*369 _0324_
*370 _0325_
*371 _0326_
*372 _0327_
*373 _0328_
*374 _0329_
*375 _0330_
*376 _0331_
*377 _0332_
*378 _0333_
*379 _0334_
*380 _0335_
*381 _0336_
*382 _0337_
*383 _0338_
*384 _0339_
*385 _0340_
*386 _0341_
*387 _0342_
*388 _0343_
*389 _0344_
*390 _0345_
*391 _0346_
*392 _0347_
*393 _0348_
*394 _0349_
*395 _0350_
*396 _0351_
*397 _0352_
*398 _0353_
*399 _0354_
*400 _0355_
*401 _0356_
*402 _0357_
*403 _0358_
*404 _0359_
*405 _0360_
*406 _0361_
*407 _0362_
*408 _0363_
*409 _0364_
*410 _0365_
*411 _0366_
*412 _0367_
*413 _0368_
*414 _0369_
*415 _0370_
*416 _0371_
*417 _0372_
*418 _0373_
*419 _0374_
*420 _0375_
*421 _0376_
*422 _0377_
*423 _0378_
*424 _0379_
*425 _0380_
*426 _0381_
*427 _0382_
*428 _0383_
*429 _0384_
*430 _0385_
*431 _0386_
*432 _0387_
*433 _0388_
*434 _0389_
*435 _0390_
*436 _0391_
*437 _0392_
*438 _0393_
*439 _0394_
*440 _0395_
*441 _0396_
*442 _0397_
*443 _0398_
*444 _0399_
*445 _0400_
*446 _0401_
*447 _0402_
*448 _0403_
*449 _0404_
*450 _0405_
*451 _0406_
*452 _0407_
*453 _0408_
*454 _0409_
*455 _0410_
*456 _0411_
*457 _0412_
*458 _0413_
*459 _0414_
*460 _0415_
*461 _0416_
*462 _0417_
*463 _0418_
*464 _0419_
*465 _0420_
*466 _0421_
*467 _0422_
*468 _0423_
*469 _0424_
*470 _0425_
*471 _0426_
*472 _0427_
*473 _0428_
*474 _0429_
*475 _0430_
*476 _0431_
*477 _0432_
*478 _0433_
*479 _0434_
*480 _0435_
*481 _0436_
*482 _0437_
*483 _0438_
*484 _0439_
*485 _0440_
*486 _0441_
*487 _0442_
*488 _0443_
*489 _0444_
*490 _0445_
*491 _0446_
*492 _0447_
*493 _0448_
*494 _0449_
*495 _0450_
*496 _0451_
*497 _0452_
*498 _0453_
*499 _0454_
*500 _0455_
*501 _0456_
*502 _0457_
*503 _0458_
*504 _0459_
*505 _0460_
*506 _0461_
*507 _0462_
*508 _0463_
*509 _0464_
*510 _0465_
*511 _0466_
*512 _0467_
*513 _0468_
*514 _0469_
*515 _0470_
*516 _0471_
*517 _0472_
*518 _0473_
*519 _0474_
*520 _0475_
*521 _0476_
*522 _0477_
*523 _0478_
*524 _0479_
*525 _0480_
*526 _0481_
*527 _0482_
*528 _0483_
*529 _0484_
*530 _0485_
*531 _0486_
*532 _0487_
*533 _0488_
*534 _0489_
*535 _0490_
*536 _0491_
*537 _0492_
*538 _0493_
*539 _0494_
*540 _0495_
*541 _0496_
*542 _0497_
*543 _0498_
*544 _0499_
*545 _0500_
*546 _0501_
*547 _0502_
*548 _0503_
*549 _0504_
*550 _0505_
*551 _0506_
*552 _0507_
*553 _0508_
*554 _0509_
*555 _0510_
*556 _0511_
*557 _0512_
*558 _0513_
*559 _0514_
*560 _0515_
*561 _0516_
*562 _0517_
*563 _0518_
*564 _0519_
*565 _0520_
*566 _0521_
*567 _0522_
*568 _0523_
*569 _0524_
*570 _0525_
*571 _0526_
*572 _0527_
*573 _0528_
*574 _0529_
*575 _0530_
*576 _0531_
*577 _0532_
*578 _0533_
*579 _0534_
*580 _0535_
*581 _0536_
*582 _0537_
*583 _0538_
*584 _0539_
*585 _0540_
*586 _0541_
*587 _0542_
*588 _0543_
*589 _0544_
*590 _0545_
*591 _0546_
*592 _0547_
*593 _0548_
*594 _0549_
*595 _0550_
*596 _0551_
*597 _0552_
*598 _0553_
*599 _0554_
*600 _0555_
*601 _0556_
*602 _0557_
*603 _0558_
*604 _0559_
*605 _0560_
*606 _0561_
*607 _0562_
*608 _0563_
*609 _0564_
*610 _0565_
*611 _0566_
*612 _0567_
*613 _0568_
*614 _0569_
*615 _0570_
*616 _0571_
*617 _0572_
*618 _0573_
*619 _0574_
*620 _0575_
*621 _0576_
*622 _0577_
*623 _0578_
*624 _0579_
*625 _0580_
*626 _0581_
*627 _0582_
*628 _0583_
*629 _0584_
*630 _0585_
*631 _0586_
*632 _0587_
*633 _0588_
*634 _0589_
*635 _0590_
*636 _0591_
*637 _0592_
*638 _0593_
*639 _0594_
*640 _0595_
*641 _0596_
*642 _0597_
*643 _0598_
*644 _0599_
*645 _0600_
*646 _0601_
*647 _0602_
*648 _0603_
*649 _0604_
*650 _0605_
*651 _0606_
*652 _0607_
*653 _0608_
*654 _0609_
*655 _0610_
*656 _0611_
*657 _0612_
*658 _0613_
*659 _0614_
*660 _0615_
*661 _0616_
*662 _0617_
*663 _0618_
*664 _0619_
*665 _0620_
*666 _0621_
*667 _0622_
*668 _0623_
*669 _0624_
*670 _0625_
*671 _0626_
*672 _0627_
*673 _0628_
*674 _0629_
*675 _0630_
*676 _0631_
*677 _0632_
*678 _0633_
*679 _0634_
*680 _0635_
*681 _0636_
*682 clknet_0_clk
*683 clknet_3_0__leaf_clk
*684 clknet_3_1__leaf_clk
*685 clknet_3_2__leaf_clk
*686 clknet_3_3__leaf_clk
*687 clknet_3_4__leaf_clk
*688 clknet_3_5__leaf_clk
*689 clknet_3_6__leaf_clk
*690 clknet_3_7__leaf_clk
*691 net1
*692 net2
*693 net24
*694 net26
*695 net27
*696 net28
*697 net29
*698 net30
*699 net31
*700 net32
*701 net33
*702 net34
*703 net35
*704 net36
*705 net37
*706 net38
*707 net39
*708 net40
*709 net41
*710 net42
*711 net43
*712 net44
*713 net45
*714 net46
*715 net47
*716 net48
*717 net49
*718 net50
*719 net51
*720 net52
*721 net53
*722 net54
*723 net55
*724 net56
*725 net57
*726 net58
*727 net59
*728 net60
*729 net61
*730 net62
*731 net63
*732 net64
*733 net65
*734 net66
*735 net67
*736 net68
*737 net69
*738 net70
*739 net71
*740 net72
*741 net73
*742 net74
*743 net75
*744 net76
*745 net77
*746 net78
*747 net79
*748 net80
*749 prelude\.clk_sine
*750 prelude\.clkgen_dac\.clk_o
*751 prelude\.clkgen_dac\.ctr_r\[0\]
*752 prelude\.clkgen_dac\.ctr_r\[1\]
*753 prelude\.clkgen_fs\.clk_o
*754 prelude\.clkgen_fs\.ctr_r\[0\]
*755 prelude\.clkgen_fs\.ctr_r\[10\]
*756 prelude\.clkgen_fs\.ctr_r\[1\]
*757 prelude\.clkgen_fs\.ctr_r\[2\]
*758 prelude\.clkgen_fs\.ctr_r\[3\]
*759 prelude\.clkgen_fs\.ctr_r\[4\]
*760 prelude\.clkgen_fs\.ctr_r\[5\]
*761 prelude\.clkgen_fs\.ctr_r\[6\]
*762 prelude\.clkgen_fs\.ctr_r\[7\]
*763 prelude\.clkgen_fs\.ctr_r\[8\]
*764 prelude\.clkgen_fs\.ctr_r\[9\]
*765 prelude\.clkgen_sin\.ctr_r\[0\]
*766 prelude\.clkgen_sin\.ctr_r\[1\]
*767 prelude\.clkgen_sin\.ctr_r\[2\]
*768 prelude\.clkgen_sin\.ctr_r\[3\]
*769 prelude\.clkgen_sin\.ctr_r\[4\]
*770 prelude\.clkgen_sin\.ctr_r\[5\]
*771 prelude\.clkgen_sin\.ctr_r\[6\]
*772 prelude\.clkgen_sin\.ctr_r\[7\]
*773 prelude\.clkgen_sin\.ctr_r\[8\]
*774 prelude\.clkgen_sin\.maxval\[0\]
*775 prelude\.clkgen_sin\.maxval\[1\]
*776 prelude\.clkgen_sin\.maxval\[2\]
*777 prelude\.clkgen_sin\.maxval\[3\]
*778 prelude\.clkgen_sin\.maxval\[4\]
*779 prelude\.clkgen_sin\.maxval\[5\]
*780 prelude\.clkgen_sin\.maxval\[6\]
*781 prelude\.clkgen_sin\.maxval\[7\]
*782 prelude\.clkgen_sin\.maxval\[8\]
*783 prelude\.ctr_duration\[0\]
*784 prelude\.ctr_duration\[10\]
*785 prelude\.ctr_duration\[11\]
*786 prelude\.ctr_duration\[12\]
*787 prelude\.ctr_duration\[1\]
*788 prelude\.ctr_duration\[2\]
*789 prelude\.ctr_duration\[3\]
*790 prelude\.ctr_duration\[4\]
*791 prelude\.ctr_duration\[5\]
*792 prelude\.ctr_duration\[6\]
*793 prelude\.ctr_duration\[7\]
*794 prelude\.ctr_duration\[8\]
*795 prelude\.ctr_duration\[9\]
*796 prelude\.ctr_pitch_i\[0\]
*797 prelude\.ctr_pitch_i\[1\]
*798 prelude\.ctr_pitch_i\[2\]
*799 prelude\.ctr_pitch_i\[3\]
*800 prelude\.ctr_pitch_i\[4\]
*801 prelude\.dac_neg\.ctr_r\[0\]
*802 prelude\.dac_neg\.ctr_r\[1\]
*803 prelude\.dac_neg\.ctr_r\[2\]
*804 prelude\.dac_neg\.ctr_r\[3\]
*805 prelude\.dac_neg\.ctr_r\[4\]
*806 prelude\.dac_neg\.ctr_r\[5\]
*807 prelude\.dac_neg\.ctr_r\[6\]
*808 prelude\.dac_neg\.ctr_r\[7\]
*809 prelude\.dac_neg\.ctr_r\[8\]
*810 prelude\.dac_neg\.pwm
*811 prelude\.dac_neg\.t_on\[0\]
*812 prelude\.dac_neg\.t_on\[1\]
*813 prelude\.dac_neg\.t_on\[2\]
*814 prelude\.dac_neg\.t_on\[3\]
*815 prelude\.dac_neg\.t_on\[4\]
*816 prelude\.dac_neg\.t_on\[5\]
*817 prelude\.dac_neg\.t_on\[6\]
*818 prelude\.dac_neg\.t_on\[7\]
*819 prelude\.dac_neg\.t_on\[8\]
*820 prelude\.dac_pos\.ctr_r\[0\]
*821 prelude\.dac_pos\.ctr_r\[1\]
*822 prelude\.dac_pos\.ctr_r\[2\]
*823 prelude\.dac_pos\.ctr_r\[3\]
*824 prelude\.dac_pos\.ctr_r\[4\]
*825 prelude\.dac_pos\.ctr_r\[5\]
*826 prelude\.dac_pos\.ctr_r\[6\]
*827 prelude\.dac_pos\.ctr_r\[7\]
*828 prelude\.dac_pos\.ctr_r\[8\]
*829 prelude\.dac_pos\.pwm
*830 prelude\.dac_pos\.t_on\[0\]
*831 prelude\.dac_pos\.t_on\[1\]
*832 prelude\.dac_pos\.t_on\[2\]
*833 prelude\.dac_pos\.t_on\[3\]
*834 prelude\.dac_pos\.t_on\[4\]
*835 prelude\.dac_pos\.t_on\[5\]
*836 prelude\.dac_pos\.t_on\[6\]
*837 prelude\.dac_pos\.t_on\[7\]
*838 prelude\.dac_pos\.t_on\[8\]
*839 prelude\.duration\[0\]
*840 prelude\.duration\[11\]
*841 prelude\.duration\[12\]
*842 prelude\.duration\[4\]
*843 prelude\.duration\[5\]
*844 prelude\.duration\[6\]
*845 prelude\.duration\[7\]
*846 prelude\.duration_reset
*847 prelude\.sine\.ctr_r\[0\]
*848 prelude\.sine\.ctr_r\[1\]
*849 prelude\.sine\.ctr_r\[2\]
*850 prelude\.sine\.ctr_r\[3\]
*851 prelude\.sine\.ctr_r\[4\]
*852 prelude\.sine\.ctr_r\[5\]
*853 prelude\.sine\.ctr_r\[6\]
*854 prelude\.sine\.ctr_r\[7\]
*855 FILLER_0_0_109
*856 FILLER_0_0_113
*857 FILLER_0_0_125
*858 FILLER_0_0_137
*859 FILLER_0_0_141
*860 FILLER_0_0_15
*861 FILLER_0_0_153
*862 FILLER_0_0_165
*863 FILLER_0_0_169
*864 FILLER_0_0_181
*865 FILLER_0_0_193
*866 FILLER_0_0_197
*867 FILLER_0_0_209
*868 FILLER_0_0_221
*869 FILLER_0_0_225
*870 FILLER_0_0_237
*871 FILLER_0_0_249
*872 FILLER_0_0_253
*873 FILLER_0_0_265
*874 FILLER_0_0_27
*875 FILLER_0_0_277
*876 FILLER_0_0_281
*877 FILLER_0_0_29
*878 FILLER_0_0_293
*879 FILLER_0_0_3
*880 FILLER_0_0_305
*881 FILLER_0_0_309
*882 FILLER_0_0_321
*883 FILLER_0_0_333
*884 FILLER_0_0_41
*885 FILLER_0_0_53
*886 FILLER_0_0_57
*887 FILLER_0_0_69
*888 FILLER_0_0_81
*889 FILLER_0_0_85
*890 FILLER_0_0_97
*891 FILLER_0_10_112
*892 FILLER_0_10_120
*893 FILLER_0_10_125
*894 FILLER_0_10_137
*895 FILLER_0_10_14
*896 FILLER_0_10_141
*897 FILLER_0_10_153
*898 FILLER_0_10_157
*899 FILLER_0_10_175
*900 FILLER_0_10_192
*901 FILLER_0_10_197
*902 FILLER_0_10_209
*903 FILLER_0_10_221
*904 FILLER_0_10_233
*905 FILLER_0_10_245
*906 FILLER_0_10_251
*907 FILLER_0_10_253
*908 FILLER_0_10_26
*909 FILLER_0_10_265
*910 FILLER_0_10_287
*911 FILLER_0_10_293
*912 FILLER_0_10_3
*913 FILLER_0_10_300
*914 FILLER_0_10_309
*915 FILLER_0_10_313
*916 FILLER_0_10_333
*917 FILLER_0_10_50
*918 FILLER_0_10_56
*919 FILLER_0_10_63
*920 FILLER_0_10_69
*921 FILLER_0_10_7
*922 FILLER_0_10_83
*923 FILLER_0_10_88
*924 FILLER_0_10_92
*925 FILLER_0_11_104
*926 FILLER_0_11_108
*927 FILLER_0_11_124
*928 FILLER_0_11_133
*929 FILLER_0_11_142
*930 FILLER_0_11_158
*931 FILLER_0_11_169
*932 FILLER_0_11_178
*933 FILLER_0_11_190
*934 FILLER_0_11_202
*935 FILLER_0_11_214
*936 FILLER_0_11_222
*937 FILLER_0_11_225
*938 FILLER_0_11_23
*939 FILLER_0_11_237
*940 FILLER_0_11_259
*941 FILLER_0_11_271
*942 FILLER_0_11_277
*943 FILLER_0_11_281
*944 FILLER_0_11_3
*945 FILLER_0_11_31
*946 FILLER_0_11_315
*947 FILLER_0_11_327
*948 FILLER_0_11_43
*949 FILLER_0_11_55
*950 FILLER_0_11_61
*951 FILLER_0_11_7
*952 FILLER_0_11_73
*953 FILLER_0_11_77
*954 FILLER_0_11_81
*955 FILLER_0_11_92
*956 FILLER_0_12_10
*957 FILLER_0_12_106
*958 FILLER_0_12_118
*959 FILLER_0_12_136
*960 FILLER_0_12_141
*961 FILLER_0_12_150
*962 FILLER_0_12_158
*963 FILLER_0_12_172
*964 FILLER_0_12_194
*965 FILLER_0_12_197
*966 FILLER_0_12_209
*967 FILLER_0_12_221
*968 FILLER_0_12_233
*969 FILLER_0_12_24
*970 FILLER_0_12_245
*971 FILLER_0_12_251
*972 FILLER_0_12_253
*973 FILLER_0_12_267
*974 FILLER_0_12_279
*975 FILLER_0_12_29
*976 FILLER_0_12_291
*977 FILLER_0_12_295
*978 FILLER_0_12_3
*979 FILLER_0_12_302
*980 FILLER_0_12_309
*981 FILLER_0_12_315
*982 FILLER_0_12_37
*983 FILLER_0_12_46
*984 FILLER_0_12_51
*985 FILLER_0_12_59
*986 FILLER_0_12_76
*987 FILLER_0_12_85
*988 FILLER_0_12_92
*989 FILLER_0_13_113
*990 FILLER_0_13_12
*991 FILLER_0_13_127
*992 FILLER_0_13_142
*993 FILLER_0_13_150
*994 FILLER_0_13_158
*995 FILLER_0_13_165
*996 FILLER_0_13_169
*997 FILLER_0_13_18
*998 FILLER_0_13_181
*999 FILLER_0_13_193
*1000 FILLER_0_13_205
*1001 FILLER_0_13_213
*1002 FILLER_0_13_221
*1003 FILLER_0_13_234
*1004 FILLER_0_13_242
*1005 FILLER_0_13_281
*1006 FILLER_0_13_297
*1007 FILLER_0_13_3
*1008 FILLER_0_13_30
*1009 FILLER_0_13_308
*1010 FILLER_0_13_321
*1011 FILLER_0_13_333
*1012 FILLER_0_13_49
*1013 FILLER_0_13_55
*1014 FILLER_0_13_62
*1015 FILLER_0_13_7
*1016 FILLER_0_13_74
*1017 FILLER_0_13_80
*1018 FILLER_0_13_88
*1019 FILLER_0_13_96
*1020 FILLER_0_14_110
*1021 FILLER_0_14_114
*1022 FILLER_0_14_120
*1023 FILLER_0_14_132
*1024 FILLER_0_14_141
*1025 FILLER_0_14_157
*1026 FILLER_0_14_163
*1027 FILLER_0_14_17
*1028 FILLER_0_14_195
*1029 FILLER_0_14_222
*1030 FILLER_0_14_239
*1031 FILLER_0_14_253
*1032 FILLER_0_14_26
*1033 FILLER_0_14_276
*1034 FILLER_0_14_29
*1035 FILLER_0_14_296
*1036 FILLER_0_14_3
*1037 FILLER_0_14_302
*1038 FILLER_0_14_309
*1039 FILLER_0_14_317
*1040 FILLER_0_14_37
*1041 FILLER_0_14_42
*1042 FILLER_0_14_47
*1043 FILLER_0_14_61
*1044 FILLER_0_14_67
*1045 FILLER_0_14_72
*1046 FILLER_0_14_80
*1047 FILLER_0_14_85
*1048 FILLER_0_14_9
*1049 FILLER_0_14_98
*1050 FILLER_0_15_104
*1051 FILLER_0_15_111
*1052 FILLER_0_15_133
*1053 FILLER_0_15_150
*1054 FILLER_0_15_163
*1055 FILLER_0_15_167
*1056 FILLER_0_15_169
*1057 FILLER_0_15_177
*1058 FILLER_0_15_187
*1059 FILLER_0_15_199
*1060 FILLER_0_15_207
*1061 FILLER_0_15_21
*1062 FILLER_0_15_220
*1063 FILLER_0_15_233
*1064 FILLER_0_15_245
*1065 FILLER_0_15_253
*1066 FILLER_0_15_262
*1067 FILLER_0_15_274
*1068 FILLER_0_15_3
*1069 FILLER_0_15_308
*1070 FILLER_0_15_321
*1071 FILLER_0_15_325
*1072 FILLER_0_15_334
*1073 FILLER_0_15_63
*1074 FILLER_0_15_74
*1075 FILLER_0_15_88
*1076 FILLER_0_16_109
*1077 FILLER_0_16_121
*1078 FILLER_0_16_129
*1079 FILLER_0_16_136
*1080 FILLER_0_16_141
*1081 FILLER_0_16_149
*1082 FILLER_0_16_161
*1083 FILLER_0_16_187
*1084 FILLER_0_16_19
*1085 FILLER_0_16_195
*1086 FILLER_0_16_197
*1087 FILLER_0_16_205
*1088 FILLER_0_16_215
*1089 FILLER_0_16_230
*1090 FILLER_0_16_250
*1091 FILLER_0_16_253
*1092 FILLER_0_16_265
*1093 FILLER_0_16_275
*1094 FILLER_0_16_287
*1095 FILLER_0_16_29
*1096 FILLER_0_16_295
*1097 FILLER_0_16_3
*1098 FILLER_0_16_306
*1099 FILLER_0_16_319
*1100 FILLER_0_16_325
*1101 FILLER_0_16_334
*1102 FILLER_0_16_37
*1103 FILLER_0_16_49
*1104 FILLER_0_16_61
*1105 FILLER_0_16_65
*1106 FILLER_0_16_74
*1107 FILLER_0_16_82
*1108 FILLER_0_16_85
*1109 FILLER_0_16_97
*1110 FILLER_0_17_108
*1111 FILLER_0_17_124
*1112 FILLER_0_17_128
*1113 FILLER_0_17_139
*1114 FILLER_0_17_145
*1115 FILLER_0_17_15
*1116 FILLER_0_17_166
*1117 FILLER_0_17_169
*1118 FILLER_0_17_181
*1119 FILLER_0_17_187
*1120 FILLER_0_17_205
*1121 FILLER_0_17_215
*1122 FILLER_0_17_223
*1123 FILLER_0_17_225
*1124 FILLER_0_17_237
*1125 FILLER_0_17_246
*1126 FILLER_0_17_25
*1127 FILLER_0_17_258
*1128 FILLER_0_17_270
*1129 FILLER_0_17_278
*1130 FILLER_0_17_281
*1131 FILLER_0_17_285
*1132 FILLER_0_17_29
*1133 FILLER_0_17_3
*1134 FILLER_0_17_302
*1135 FILLER_0_17_34
*1136 FILLER_0_17_46
*1137 FILLER_0_17_53
*1138 FILLER_0_17_57
*1139 FILLER_0_17_61
*1140 FILLER_0_17_72
*1141 FILLER_0_17_80
*1142 FILLER_0_17_96
*1143 FILLER_0_18_118
*1144 FILLER_0_18_126
*1145 FILLER_0_18_141
*1146 FILLER_0_18_150
*1147 FILLER_0_18_154
*1148 FILLER_0_18_162
*1149 FILLER_0_18_168
*1150 FILLER_0_18_178
*1151 FILLER_0_18_187
*1152 FILLER_0_18_195
*1153 FILLER_0_18_197
*1154 FILLER_0_18_209
*1155 FILLER_0_18_233
*1156 FILLER_0_18_250
*1157 FILLER_0_18_26
*1158 FILLER_0_18_277
*1159 FILLER_0_18_289
*1160 FILLER_0_18_294
*1161 FILLER_0_18_304
*1162 FILLER_0_18_309
*1163 FILLER_0_18_317
*1164 FILLER_0_18_321
*1165 FILLER_0_18_43
*1166 FILLER_0_18_77
*1167 FILLER_0_18_83
*1168 FILLER_0_18_85
*1169 FILLER_0_18_91
*1170 FILLER_0_19_113
*1171 FILLER_0_19_124
*1172 FILLER_0_19_136
*1173 FILLER_0_19_144
*1174 FILLER_0_19_15
*1175 FILLER_0_19_156
*1176 FILLER_0_19_188
*1177 FILLER_0_19_248
*1178 FILLER_0_19_256
*1179 FILLER_0_19_27
*1180 FILLER_0_19_278
*1181 FILLER_0_19_288
*1182 FILLER_0_19_3
*1183 FILLER_0_19_300
*1184 FILLER_0_19_305
*1185 FILLER_0_19_31
*1186 FILLER_0_19_49
*1187 FILLER_0_19_55
*1188 FILLER_0_19_57
*1189 FILLER_0_19_63
*1190 FILLER_0_19_70
*1191 FILLER_0_19_78
*1192 FILLER_0_19_88
*1193 FILLER_0_1_105
*1194 FILLER_0_1_111
*1195 FILLER_0_1_113
*1196 FILLER_0_1_125
*1197 FILLER_0_1_137
*1198 FILLER_0_1_149
*1199 FILLER_0_1_15
*1200 FILLER_0_1_161
*1201 FILLER_0_1_167
*1202 FILLER_0_1_169
*1203 FILLER_0_1_181
*1204 FILLER_0_1_193
*1205 FILLER_0_1_205
*1206 FILLER_0_1_217
*1207 FILLER_0_1_223
*1208 FILLER_0_1_225
*1209 FILLER_0_1_237
*1210 FILLER_0_1_249
*1211 FILLER_0_1_261
*1212 FILLER_0_1_27
*1213 FILLER_0_1_273
*1214 FILLER_0_1_279
*1215 FILLER_0_1_281
*1216 FILLER_0_1_293
*1217 FILLER_0_1_3
*1218 FILLER_0_1_305
*1219 FILLER_0_1_317
*1220 FILLER_0_1_329
*1221 FILLER_0_1_39
*1222 FILLER_0_1_51
*1223 FILLER_0_1_55
*1224 FILLER_0_1_57
*1225 FILLER_0_1_69
*1226 FILLER_0_1_81
*1227 FILLER_0_1_93
*1228 FILLER_0_20_102
*1229 FILLER_0_20_114
*1230 FILLER_0_20_120
*1231 FILLER_0_20_137
*1232 FILLER_0_20_161
*1233 FILLER_0_20_173
*1234 FILLER_0_20_185
*1235 FILLER_0_20_189
*1236 FILLER_0_20_195
*1237 FILLER_0_20_197
*1238 FILLER_0_20_20
*1239 FILLER_0_20_209
*1240 FILLER_0_20_215
*1241 FILLER_0_20_231
*1242 FILLER_0_20_253
*1243 FILLER_0_20_265
*1244 FILLER_0_20_296
*1245 FILLER_0_20_300
*1246 FILLER_0_20_42
*1247 FILLER_0_20_63
*1248 FILLER_0_20_75
*1249 FILLER_0_20_92
*1250 FILLER_0_21_10
*1251 FILLER_0_21_106
*1252 FILLER_0_21_121
*1253 FILLER_0_21_127
*1254 FILLER_0_21_131
*1255 FILLER_0_21_145
*1256 FILLER_0_21_155
*1257 FILLER_0_21_167
*1258 FILLER_0_21_184
*1259 FILLER_0_21_188
*1260 FILLER_0_21_213
*1261 FILLER_0_21_22
*1262 FILLER_0_21_221
*1263 FILLER_0_21_225
*1264 FILLER_0_21_229
*1265 FILLER_0_21_237
*1266 FILLER_0_21_249
*1267 FILLER_0_21_255
*1268 FILLER_0_21_279
*1269 FILLER_0_21_289
*1270 FILLER_0_21_3
*1271 FILLER_0_21_30
*1272 FILLER_0_21_311
*1273 FILLER_0_21_315
*1274 FILLER_0_21_42
*1275 FILLER_0_21_54
*1276 FILLER_0_21_57
*1277 FILLER_0_21_61
*1278 FILLER_0_21_78
*1279 FILLER_0_21_94
*1280 FILLER_0_22_11
*1281 FILLER_0_22_113
*1282 FILLER_0_22_122
*1283 FILLER_0_22_141
*1284 FILLER_0_22_147
*1285 FILLER_0_22_151
*1286 FILLER_0_22_163
*1287 FILLER_0_22_188
*1288 FILLER_0_22_195
*1289 FILLER_0_22_197
*1290 FILLER_0_22_201
*1291 FILLER_0_22_213
*1292 FILLER_0_22_225
*1293 FILLER_0_22_229
*1294 FILLER_0_22_246
*1295 FILLER_0_22_253
*1296 FILLER_0_22_265
*1297 FILLER_0_22_29
*1298 FILLER_0_22_298
*1299 FILLER_0_22_3
*1300 FILLER_0_22_303
*1301 FILLER_0_22_307
*1302 FILLER_0_22_325
*1303 FILLER_0_22_333
*1304 FILLER_0_22_39
*1305 FILLER_0_22_60
*1306 FILLER_0_22_74
*1307 FILLER_0_22_82
*1308 FILLER_0_22_85
*1309 FILLER_0_23_104
*1310 FILLER_0_23_121
*1311 FILLER_0_23_127
*1312 FILLER_0_23_230
*1313 FILLER_0_23_27
*1314 FILLER_0_23_278
*1315 FILLER_0_23_281
*1316 FILLER_0_23_293
*1317 FILLER_0_23_305
*1318 FILLER_0_23_313
*1319 FILLER_0_23_323
*1320 FILLER_0_23_45
*1321 FILLER_0_23_53
*1322 FILLER_0_23_57
*1323 FILLER_0_23_80
*1324 FILLER_0_23_92
*1325 FILLER_0_24_11
*1326 FILLER_0_24_125
*1327 FILLER_0_24_133
*1328 FILLER_0_24_139
*1329 FILLER_0_24_141
*1330 FILLER_0_24_153
*1331 FILLER_0_24_189
*1332 FILLER_0_24_195
*1333 FILLER_0_24_197
*1334 FILLER_0_24_209
*1335 FILLER_0_24_215
*1336 FILLER_0_24_222
*1337 FILLER_0_24_23
*1338 FILLER_0_24_233
*1339 FILLER_0_24_243
*1340 FILLER_0_24_251
*1341 FILLER_0_24_253
*1342 FILLER_0_24_265
*1343 FILLER_0_24_27
*1344 FILLER_0_24_271
*1345 FILLER_0_24_284
*1346 FILLER_0_24_29
*1347 FILLER_0_24_3
*1348 FILLER_0_24_309
*1349 FILLER_0_24_318
*1350 FILLER_0_24_35
*1351 FILLER_0_24_46
*1352 FILLER_0_24_59
*1353 FILLER_0_24_69
*1354 FILLER_0_24_7
*1355 FILLER_0_24_75
*1356 FILLER_0_25_111
*1357 FILLER_0_25_113
*1358 FILLER_0_25_125
*1359 FILLER_0_25_129
*1360 FILLER_0_25_154
*1361 FILLER_0_25_173
*1362 FILLER_0_25_223
*1363 FILLER_0_25_234
*1364 FILLER_0_25_243
*1365 FILLER_0_25_265
*1366 FILLER_0_25_272
*1367 FILLER_0_25_277
*1368 FILLER_0_25_28
*1369 FILLER_0_25_281
*1370 FILLER_0_25_289
*1371 FILLER_0_25_297
*1372 FILLER_0_25_3
*1373 FILLER_0_25_309
*1374 FILLER_0_25_315
*1375 FILLER_0_25_320
*1376 FILLER_0_25_332
*1377 FILLER_0_25_52
*1378 FILLER_0_25_60
*1379 FILLER_0_25_99
*1380 FILLER_0_26_113
*1381 FILLER_0_26_117
*1382 FILLER_0_26_137
*1383 FILLER_0_26_141
*1384 FILLER_0_26_15
*1385 FILLER_0_26_175
*1386 FILLER_0_26_192
*1387 FILLER_0_26_197
*1388 FILLER_0_26_21
*1389 FILLER_0_26_213
*1390 FILLER_0_26_221
*1391 FILLER_0_26_230
*1392 FILLER_0_26_242
*1393 FILLER_0_26_25
*1394 FILLER_0_26_250
*1395 FILLER_0_26_253
*1396 FILLER_0_26_259
*1397 FILLER_0_26_267
*1398 FILLER_0_26_274
*1399 FILLER_0_26_283
*1400 FILLER_0_26_29
*1401 FILLER_0_26_295
*1402 FILLER_0_26_3
*1403 FILLER_0_26_301
*1404 FILLER_0_26_307
*1405 FILLER_0_26_309
*1406 FILLER_0_26_37
*1407 FILLER_0_26_78
*1408 FILLER_0_26_93
*1409 FILLER_0_27_106
*1410 FILLER_0_27_113
*1411 FILLER_0_27_125
*1412 FILLER_0_27_134
*1413 FILLER_0_27_162
*1414 FILLER_0_27_169
*1415 FILLER_0_27_176
*1416 FILLER_0_27_184
*1417 FILLER_0_27_193
*1418 FILLER_0_27_205
*1419 FILLER_0_27_217
*1420 FILLER_0_27_223
*1421 FILLER_0_27_233
*1422 FILLER_0_27_241
*1423 FILLER_0_27_263
*1424 FILLER_0_27_276
*1425 FILLER_0_27_281
*1426 FILLER_0_27_285
*1427 FILLER_0_27_3
*1428 FILLER_0_27_305
*1429 FILLER_0_27_309
*1430 FILLER_0_27_32
*1431 FILLER_0_27_331
*1432 FILLER_0_27_47
*1433 FILLER_0_27_55
*1434 FILLER_0_27_70
*1435 FILLER_0_27_82
*1436 FILLER_0_27_94
*1437 FILLER_0_28_104
*1438 FILLER_0_28_11
*1439 FILLER_0_28_116
*1440 FILLER_0_28_135
*1441 FILLER_0_28_139
*1442 FILLER_0_28_141
*1443 FILLER_0_28_147
*1444 FILLER_0_28_164
*1445 FILLER_0_28_191
*1446 FILLER_0_28_195
*1447 FILLER_0_28_219
*1448 FILLER_0_28_23
*1449 FILLER_0_28_248
*1450 FILLER_0_28_253
*1451 FILLER_0_28_283
*1452 FILLER_0_28_29
*1453 FILLER_0_28_3
*1454 FILLER_0_28_300
*1455 FILLER_0_28_309
*1456 FILLER_0_28_322
*1457 FILLER_0_28_332
*1458 FILLER_0_28_37
*1459 FILLER_0_28_7
*1460 FILLER_0_28_78
*1461 FILLER_0_28_93
*1462 FILLER_0_29_122
*1463 FILLER_0_29_146
*1464 FILLER_0_29_150
*1465 FILLER_0_29_157
*1466 FILLER_0_29_165
*1467 FILLER_0_29_169
*1468 FILLER_0_29_173
*1469 FILLER_0_29_177
*1470 FILLER_0_29_189
*1471 FILLER_0_29_20
*1472 FILLER_0_29_204
*1473 FILLER_0_29_245
*1474 FILLER_0_29_253
*1475 FILLER_0_29_261
*1476 FILLER_0_29_271
*1477 FILLER_0_29_279
*1478 FILLER_0_29_281
*1479 FILLER_0_29_287
*1480 FILLER_0_29_295
*1481 FILLER_0_29_3
*1482 FILLER_0_29_30
*1483 FILLER_0_29_315
*1484 FILLER_0_29_41
*1485 FILLER_0_29_45
*1486 FILLER_0_29_52
*1487 FILLER_0_29_57
*1488 FILLER_0_29_69
*1489 FILLER_0_29_91
*1490 FILLER_0_29_97
*1491 FILLER_0_2_109
*1492 FILLER_0_2_121
*1493 FILLER_0_2_133
*1494 FILLER_0_2_139
*1495 FILLER_0_2_141
*1496 FILLER_0_2_15
*1497 FILLER_0_2_153
*1498 FILLER_0_2_165
*1499 FILLER_0_2_177
*1500 FILLER_0_2_189
*1501 FILLER_0_2_195
*1502 FILLER_0_2_197
*1503 FILLER_0_2_209
*1504 FILLER_0_2_221
*1505 FILLER_0_2_233
*1506 FILLER_0_2_245
*1507 FILLER_0_2_251
*1508 FILLER_0_2_253
*1509 FILLER_0_2_265
*1510 FILLER_0_2_27
*1511 FILLER_0_2_277
*1512 FILLER_0_2_289
*1513 FILLER_0_2_29
*1514 FILLER_0_2_3
*1515 FILLER_0_2_301
*1516 FILLER_0_2_307
*1517 FILLER_0_2_309
*1518 FILLER_0_2_321
*1519 FILLER_0_2_333
*1520 FILLER_0_2_41
*1521 FILLER_0_2_53
*1522 FILLER_0_2_65
*1523 FILLER_0_2_77
*1524 FILLER_0_2_83
*1525 FILLER_0_2_85
*1526 FILLER_0_2_97
*1527 FILLER_0_30_101
*1528 FILLER_0_30_114
*1529 FILLER_0_30_122
*1530 FILLER_0_30_130
*1531 FILLER_0_30_138
*1532 FILLER_0_30_141
*1533 FILLER_0_30_15
*1534 FILLER_0_30_152
*1535 FILLER_0_30_173
*1536 FILLER_0_30_190
*1537 FILLER_0_30_236
*1538 FILLER_0_30_264
*1539 FILLER_0_30_272
*1540 FILLER_0_30_290
*1541 FILLER_0_30_294
*1542 FILLER_0_30_3
*1543 FILLER_0_30_306
*1544 FILLER_0_30_309
*1545 FILLER_0_30_318
*1546 FILLER_0_30_330
*1547 FILLER_0_30_334
*1548 FILLER_0_30_37
*1549 FILLER_0_30_62
*1550 FILLER_0_30_79
*1551 FILLER_0_30_83
*1552 FILLER_0_31_111
*1553 FILLER_0_31_151
*1554 FILLER_0_31_163
*1555 FILLER_0_31_167
*1556 FILLER_0_31_175
*1557 FILLER_0_31_187
*1558 FILLER_0_31_199
*1559 FILLER_0_31_211
*1560 FILLER_0_31_217
*1561 FILLER_0_31_223
*1562 FILLER_0_31_225
*1563 FILLER_0_31_233
*1564 FILLER_0_31_246
*1565 FILLER_0_31_25
*1566 FILLER_0_31_274
*1567 FILLER_0_31_297
*1568 FILLER_0_31_333
*1569 FILLER_0_31_34
*1570 FILLER_0_31_46
*1571 FILLER_0_31_54
*1572 FILLER_0_31_57
*1573 FILLER_0_31_72
*1574 FILLER_0_31_86
*1575 FILLER_0_31_90
*1576 FILLER_0_32_10
*1577 FILLER_0_32_115
*1578 FILLER_0_32_139
*1579 FILLER_0_32_158
*1580 FILLER_0_32_166
*1581 FILLER_0_32_191
*1582 FILLER_0_32_195
*1583 FILLER_0_32_22
*1584 FILLER_0_32_228
*1585 FILLER_0_32_273
*1586 FILLER_0_32_285
*1587 FILLER_0_32_297
*1588 FILLER_0_32_3
*1589 FILLER_0_32_305
*1590 FILLER_0_32_315
*1591 FILLER_0_32_321
*1592 FILLER_0_32_333
*1593 FILLER_0_32_48
*1594 FILLER_0_32_60
*1595 FILLER_0_32_77
*1596 FILLER_0_32_83
*1597 FILLER_0_32_85
*1598 FILLER_0_32_93
*1599 FILLER_0_33_108
*1600 FILLER_0_33_113
*1601 FILLER_0_33_125
*1602 FILLER_0_33_130
*1603 FILLER_0_33_134
*1604 FILLER_0_33_140
*1605 FILLER_0_33_146
*1606 FILLER_0_33_163
*1607 FILLER_0_33_167
*1608 FILLER_0_33_169
*1609 FILLER_0_33_187
*1610 FILLER_0_33_195
*1611 FILLER_0_33_20
*1612 FILLER_0_33_200
*1613 FILLER_0_33_208
*1614 FILLER_0_33_223
*1615 FILLER_0_33_232
*1616 FILLER_0_33_244
*1617 FILLER_0_33_248
*1618 FILLER_0_33_255
*1619 FILLER_0_33_263
*1620 FILLER_0_33_275
*1621 FILLER_0_33_279
*1622 FILLER_0_33_288
*1623 FILLER_0_33_3
*1624 FILLER_0_33_300
*1625 FILLER_0_33_306
*1626 FILLER_0_33_35
*1627 FILLER_0_33_43
*1628 FILLER_0_33_90
*1629 FILLER_0_33_96
*1630 FILLER_0_34_122
*1631 FILLER_0_34_141
*1632 FILLER_0_34_147
*1633 FILLER_0_34_15
*1634 FILLER_0_34_151
*1635 FILLER_0_34_163
*1636 FILLER_0_34_180
*1637 FILLER_0_34_186
*1638 FILLER_0_34_194
*1639 FILLER_0_34_210
*1640 FILLER_0_34_220
*1641 FILLER_0_34_232
*1642 FILLER_0_34_240
*1643 FILLER_0_34_259
*1644 FILLER_0_34_26
*1645 FILLER_0_34_276
*1646 FILLER_0_34_284
*1647 FILLER_0_34_29
*1648 FILLER_0_34_3
*1649 FILLER_0_34_307
*1650 FILLER_0_34_309
*1651 FILLER_0_34_323
*1652 FILLER_0_34_41
*1653 FILLER_0_34_45
*1654 FILLER_0_34_58
*1655 FILLER_0_34_64
*1656 FILLER_0_34_74
*1657 FILLER_0_34_83
*1658 FILLER_0_34_93
*1659 FILLER_0_35_101