*SPEF "ieee 1481-1999"
*DESIGN "tt_um_FanCTRL_DomnikBrandstetter"
*DATE "11:11:11 Fri 11 11, 1111"
*VENDOR "OpenRCX"
*PROGRAM "Parallel Extraction"
*VERSION "1.0"
*DESIGN_FLOW "NAME_SCOPE LOCAL" "PIN_CAP NONE"
*DIVIDER /
*DELIMITER :
*BUS_DELIMITER []
*T_UNIT 1 NS
*C_UNIT 1 PF
*R_UNIT 1 OHM
*L_UNIT 1 HENRY

*NAME_MAP
*3 clk
*4 ena
*5 rst_n
*6 ui_in[0]
*7 ui_in[1]
*8 ui_in[2]
*9 ui_in[3]
*10 ui_in[4]
*11 ui_in[5]
*12 ui_in[6]
*13 ui_in[7]
*14 uio_in[0]
*15 uio_in[1]
*16 uio_in[2]
*17 uio_in[3]
*18 uio_in[4]
*19 uio_in[5]
*20 uio_in[6]
*21 uio_in[7]
*22 net17
*23 net18
*24 net19
*25 net20
*26 net21
*27 net22
*28 net23
*29 net24
*30 uio_out[0]
*31 uio_out[1]
*32 uio_out[2]
*33 uio_out[3]
*34 uio_out[4]
*35 net14
*36 net15
*37 net16
*38 uo_out[0]
*39 uo_out[1]
*40 uo_out[2]
*41 uo_out[3]
*42 uo_out[4]
*43 uo_out[5]
*44 uo_out[6]
*45 uo_out[7]
*46 FAN\.PID\.MUL\.MUL_Done_STRB_reg
*47 FAN\.PID\.MUL\.MUL_Start_STRB_i
*48 FAN\.PID\.MUL\.MulCounter\[0\]
*49 FAN\.PID\.MUL\.MulCounter\[1\]
*50 FAN\.PID\.MUL\.MulCounter\[2\]
*51 FAN\.PID\.MUL\.MulCounter\[3\]
*52 FAN\.PID\.MUL\.MulCounter\[4\]
*53 FAN\.PID\.MUL\.a_in_reg\[0\]
*54 FAN\.PID\.MUL\.a_in_reg\[10\]
*55 FAN\.PID\.MUL\.a_in_reg\[11\]
*56 FAN\.PID\.MUL\.a_in_reg\[12\]
*57 FAN\.PID\.MUL\.a_in_reg\[13\]
*58 FAN\.PID\.MUL\.a_in_reg\[14\]
*59 FAN\.PID\.MUL\.a_in_reg\[15\]
*60 FAN\.PID\.MUL\.a_in_reg\[16\]
*61 FAN\.PID\.MUL\.a_in_reg\[17\]
*62 FAN\.PID\.MUL\.a_in_reg\[18\]
*63 FAN\.PID\.MUL\.a_in_reg\[19\]
*64 FAN\.PID\.MUL\.a_in_reg\[1\]
*65 FAN\.PID\.MUL\.a_in_reg\[20\]
*66 FAN\.PID\.MUL\.a_in_reg\[21\]
*67 FAN\.PID\.MUL\.a_in_reg\[22\]
*68 FAN\.PID\.MUL\.a_in_reg\[23\]
*69 FAN\.PID\.MUL\.a_in_reg\[24\]
*70 FAN\.PID\.MUL\.a_in_reg\[25\]
*71 FAN\.PID\.MUL\.a_in_reg\[2\]
*72 FAN\.PID\.MUL\.a_in_reg\[3\]
*73 FAN\.PID\.MUL\.a_in_reg\[4\]
*74 FAN\.PID\.MUL\.a_in_reg\[5\]
*75 FAN\.PID\.MUL\.a_in_reg\[6\]
*76 FAN\.PID\.MUL\.a_in_reg\[7\]
*77 FAN\.PID\.MUL\.a_in_reg\[8\]
*78 FAN\.PID\.MUL\.a_in_reg\[9\]
*79 FAN\.PID\.MUL\.b_in_reg\[0\]
*80 FAN\.PID\.MUL\.b_in_reg\[10\]
*81 FAN\.PID\.MUL\.b_in_reg\[11\]
*82 FAN\.PID\.MUL\.b_in_reg\[12\]
*83 FAN\.PID\.MUL\.b_in_reg\[13\]
*84 FAN\.PID\.MUL\.b_in_reg\[14\]
*85 FAN\.PID\.MUL\.b_in_reg\[15\]
*86 FAN\.PID\.MUL\.b_in_reg\[16\]
*87 FAN\.PID\.MUL\.b_in_reg\[17\]
*88 FAN\.PID\.MUL\.b_in_reg\[18\]
*89 FAN\.PID\.MUL\.b_in_reg\[19\]
*90 FAN\.PID\.MUL\.b_in_reg\[1\]
*91 FAN\.PID\.MUL\.b_in_reg\[20\]
*92 FAN\.PID\.MUL\.b_in_reg\[21\]
*93 FAN\.PID\.MUL\.b_in_reg\[22\]
*94 FAN\.PID\.MUL\.b_in_reg\[23\]
*95 FAN\.PID\.MUL\.b_in_reg\[24\]
*96 FAN\.PID\.MUL\.b_in_reg\[25\]
*97 FAN\.PID\.MUL\.b_in_reg\[2\]
*98 FAN\.PID\.MUL\.b_in_reg\[3\]
*99 FAN\.PID\.MUL\.b_in_reg\[4\]
*100 FAN\.PID\.MUL\.b_in_reg\[5\]
*101 FAN\.PID\.MUL\.b_in_reg\[6\]
*102 FAN\.PID\.MUL\.b_in_reg\[7\]
*103 FAN\.PID\.MUL\.b_in_reg\[8\]
*104 FAN\.PID\.MUL\.b_in_reg\[9\]
*105 FAN\.PID\.MUL\.clkCounterValue\[0\]
*106 FAN\.PID\.MUL\.clkCounterValue\[1\]
*107 FAN\.PID\.MUL\.clkCounterValue\[2\]
*108 FAN\.PID\.MUL\.clkCounterValue\[3\]
*109 FAN\.PID\.MUL\.clkCounterValue\[4\]
*110 FAN\.PID\.MUL\.clkCounterValue\[5\]
*111 FAN\.PID\.MUL\.clkCounterValue\[6\]
*112 FAN\.PID\.MUL\.out_o\[0\]
*113 FAN\.PID\.MUL\.out_o\[10\]
*114 FAN\.PID\.MUL\.out_o\[11\]
*115 FAN\.PID\.MUL\.out_o\[12\]
*116 FAN\.PID\.MUL\.out_o\[13\]
*117 FAN\.PID\.MUL\.out_o\[14\]
*118 FAN\.PID\.MUL\.out_o\[15\]
*119 FAN\.PID\.MUL\.out_o\[16\]
*120 FAN\.PID\.MUL\.out_o\[17\]
*121 FAN\.PID\.MUL\.out_o\[18\]
*122 FAN\.PID\.MUL\.out_o\[19\]
*123 FAN\.PID\.MUL\.out_o\[1\]
*124 FAN\.PID\.MUL\.out_o\[20\]
*125 FAN\.PID\.MUL\.out_o\[21\]
*126 FAN\.PID\.MUL\.out_o\[22\]
*127 FAN\.PID\.MUL\.out_o\[23\]
*128 FAN\.PID\.MUL\.out_o\[24\]
*129 FAN\.PID\.MUL\.out_o\[25\]
*130 FAN\.PID\.MUL\.out_o\[2\]
*131 FAN\.PID\.MUL\.out_o\[3\]
*132 FAN\.PID\.MUL\.out_o\[4\]
*133 FAN\.PID\.MUL\.out_o\[5\]
*134 FAN\.PID\.MUL\.out_o\[6\]
*135 FAN\.PID\.MUL\.out_o\[7\]
*136 FAN\.PID\.MUL\.out_o\[8\]
*137 FAN\.PID\.MUL\.out_o\[9\]
*138 FAN\.PID\.clk_en_PID_buffer
*139 FAN\.PID\.error_Val_scaled_m0\[10\]
*140 FAN\.PID\.error_Val_scaled_m0\[6\]
*141 FAN\.PID\.error_Val_scaled_m0\[7\]
*142 FAN\.PID\.error_Val_scaled_m0\[8\]
*143 FAN\.PID\.error_Val_scaled_m0\[9\]
*144 FAN\.PID\.error_Val_scaled_m1\[10\]
*145 FAN\.PID\.error_Val_scaled_m1\[6\]
*146 FAN\.PID\.error_Val_scaled_m1\[7\]
*147 FAN\.PID\.error_Val_scaled_m1\[8\]
*148 FAN\.PID\.error_Val_scaled_m1\[9\]
*149 FAN\.PID\.error_Val_scaled_m2\[10\]
*150 FAN\.PID\.error_Val_scaled_m2\[6\]
*151 FAN\.PID\.error_Val_scaled_m2\[7\]
*152 FAN\.PID\.error_Val_scaled_m2\[8\]
*153 FAN\.PID\.error_Val_scaled_m2\[9\]
*154 FAN\.PID\.out_Val_sreg\[0\]\[10\]
*155 FAN\.PID\.out_Val_sreg\[0\]\[11\]
*156 FAN\.PID\.out_Val_sreg\[0\]\[12\]
*157 FAN\.PID\.out_Val_sreg\[0\]\[13\]
*158 FAN\.PID\.out_Val_sreg\[0\]\[14\]
*159 FAN\.PID\.out_Val_sreg\[0\]\[15\]
*160 FAN\.PID\.out_Val_sreg\[0\]\[16\]
*161 FAN\.PID\.out_Val_sreg\[0\]\[17\]
*162 FAN\.PID\.out_Val_sreg\[0\]\[18\]
*163 FAN\.PID\.out_Val_sreg\[0\]\[19\]
*164 FAN\.PID\.out_Val_sreg\[0\]\[20\]
*165 FAN\.PID\.out_Val_sreg\[0\]\[21\]
*166 FAN\.PID\.out_Val_sreg\[0\]\[22\]
*167 FAN\.PID\.out_Val_sreg\[0\]\[23\]
*168 FAN\.PID\.out_Val_sreg\[0\]\[24\]
*169 FAN\.PID\.out_Val_sreg\[0\]\[25\]
*170 FAN\.PID\.out_Val_sreg\[0\]\[6\]
*171 FAN\.PID\.out_Val_sreg\[0\]\[7\]
*172 FAN\.PID\.out_Val_sreg\[0\]\[8\]
*173 FAN\.PID\.out_Val_sreg\[0\]\[9\]
*174 FAN\.PID\.out_Val_sreg\[1\]\[10\]
*175 FAN\.PID\.out_Val_sreg\[1\]\[11\]
*176 FAN\.PID\.out_Val_sreg\[1\]\[12\]
*177 FAN\.PID\.out_Val_sreg\[1\]\[13\]
*178 FAN\.PID\.out_Val_sreg\[1\]\[14\]
*179 FAN\.PID\.out_Val_sreg\[1\]\[15\]
*180 FAN\.PID\.out_Val_sreg\[1\]\[16\]
*181 FAN\.PID\.out_Val_sreg\[1\]\[17\]
*182 FAN\.PID\.out_Val_sreg\[1\]\[18\]
*183 FAN\.PID\.out_Val_sreg\[1\]\[19\]
*184 FAN\.PID\.out_Val_sreg\[1\]\[20\]
*185 FAN\.PID\.out_Val_sreg\[1\]\[21\]
*186 FAN\.PID\.out_Val_sreg\[1\]\[22\]
*187 FAN\.PID\.out_Val_sreg\[1\]\[23\]
*188 FAN\.PID\.out_Val_sreg\[1\]\[24\]
*189 FAN\.PID\.out_Val_sreg\[1\]\[25\]
*190 FAN\.PID\.out_Val_sreg\[1\]\[6\]
*191 FAN\.PID\.out_Val_sreg\[1\]\[7\]
*192 FAN\.PID\.out_Val_sreg\[1\]\[8\]
*193 FAN\.PID\.out_Val_sreg\[1\]\[9\]
*194 FAN\.PID\.pipeStage\[0\]
*195 FAN\.PID\.pipeStage\[1\]
*196 FAN\.PID\.pipeStage\[2\]
*197 FAN\.PID_clk_div_counterValue\[0\]
*198 FAN\.PID_clk_div_counterValue\[10\]
*199 FAN\.PID_clk_div_counterValue\[11\]
*200 FAN\.PID_clk_div_counterValue\[12\]
*201 FAN\.PID_clk_div_counterValue\[13\]
*202 FAN\.PID_clk_div_counterValue\[14\]
*203 FAN\.PID_clk_div_counterValue\[15\]
*204 FAN\.PID_clk_div_counterValue\[16\]
*205 FAN\.PID_clk_div_counterValue\[17\]
*206 FAN\.PID_clk_div_counterValue\[1\]
*207 FAN\.PID_clk_div_counterValue\[2\]
*208 FAN\.PID_clk_div_counterValue\[3\]
*209 FAN\.PID_clk_div_counterValue\[4\]
*210 FAN\.PID_clk_div_counterValue\[5\]
*211 FAN\.PID_clk_div_counterValue\[6\]
*212 FAN\.PID_clk_div_counterValue\[7\]
*213 FAN\.PID_clk_div_counterValue\[8\]
*214 FAN\.PID_clk_div_counterValue\[9\]
*215 FAN\.PWM\.PWM_pin_o
*216 FAN\.PWM\.clk_en_i
*217 FAN\.PWM\.counterValue\[0\]
*218 FAN\.PWM\.counterValue\[1\]
*219 FAN\.PWM\.counterValue\[2\]
*220 FAN\.PWM\.counterValue\[3\]
*221 FAN\.PWM\.counterValue\[4\]
*222 FAN\.PWM\.counter\[0\]
*223 FAN\.PWM\.counter\[1\]
*224 FAN\.PWM\.counter\[2\]
*225 FAN\.PWM\.counter\[3\]
*226 FAN\.PWM\.counter\[4\]
*227 FAN\.PWM\.periodCounterValue\[1\]
*228 _0000_
*229 _0001_
*230 _0002_
*231 _0003_
*232 _0004_
*233 _0005_
*234 _0006_
*235 _0007_
*236 _0008_
*237 _0009_
*238 _0010_
*239 _0011_
*240 _0012_
*241 _0013_
*242 _0014_
*243 _0015_
*244 _0016_
*245 _0017_
*246 _0018_
*247 _0019_
*248 _0020_
*249 _0021_
*250 _0022_
*251 _0023_
*252 _0024_
*253 _0025_
*254 _0026_
*255 _0027_
*256 _0028_
*257 _0029_
*258 _0030_
*259 _0031_
*260 _0032_
*261 _0033_
*262 _0034_
*263 _0035_
*264 _0036_
*265 _0037_
*266 _0038_
*267 _0039_
*268 _0040_
*269 _0041_
*270 _0042_
*271 _0043_
*272 _0044_
*273 _0045_
*274 _0046_
*275 _0047_
*276 _0048_
*277 _0049_
*278 _0050_
*279 _0051_
*280 _0052_
*281 _0053_
*282 _0054_
*283 _0055_
*284 _0056_
*285 _0057_
*286 _0058_
*287 _0059_
*288 _0060_
*289 _0061_
*290 _0062_
*291 _0063_
*292 _0064_
*293 _0065_
*294 _0066_
*295 _0067_
*296 _0068_
*297 _0069_
*298 _0070_
*299 _0071_
*300 _0072_
*301 _0073_
*302 _0074_
*303 _0075_
*304 _0076_
*305 _0077_
*306 _0078_
*307 _0079_
*308 _0080_
*309 _0081_
*310 _0082_
*311 _0083_
*312 _0084_
*313 _0085_
*314 _0086_
*315 _0087_
*316 _0088_
*317 _0089_
*318 _0090_
*319 _0091_
*320 _0092_
*321 _0093_
*322 _0094_
*323 _0095_
*324 _0096_
*325 _0097_
*326 _0098_
*327 _0099_
*328 _0100_
*329 _0101_
*330 _0102_
*331 _0103_
*332 _0104_
*333 _0105_
*334 _0106_
*335 _0107_
*336 _0108_
*337 _0109_
*338 _0110_
*339 _0111_
*340 _0112_
*341 _0113_
*342 _0114_
*343 _0115_
*344 _0116_
*345 _0117_
*346 _0118_
*347 _0119_
*348 _0120_
*349 _0121_
*350 _0122_
*351 _0123_
*352 _0124_
*353 _0125_
*354 _0126_
*355 _0127_
*356 _0128_
*357 _0129_
*358 _0130_
*359 _0131_
*360 _0132_
*361 _0133_
*362 _0134_
*363 _0135_
*364 _0136_
*365 _0137_
*366 _0138_
*367 _0139_
*368 _0140_
*369 _0141_
*370 _0142_
*371 _0143_
*372 _0144_
*373 _0145_
*374 _0146_
*375 _0147_
*376 _0148_
*377 _0149_
*378 _0150_
*379 _0151_
*380 _0152_
*381 _0153_
*382 _0154_
*383 _0155_
*384 _0156_
*385 _0157_
*386 _0158_
*387 _0159_
*388 _0160_
*389 _0161_
*390 _0162_
*391 _0163_
*392 _0164_
*393 _0165_
*394 _0166_
*395 _0167_
*396 _0168_
*397 _0169_
*398 _0170_
*399 _0171_
*400 _0172_
*401 _0173_
*402 _0174_
*403 _0175_
*404 _0176_
*405 _0177_
*406 _0178_
*407 _0179_
*408 _0180_
*409 _0181_
*410 _0182_
*411 _0183_
*412 _0184_
*413 _0185_
*414 _0186_
*415 _0187_
*416 _0188_
*417 _0189_
*418 _0190_
*419 _0191_
*420 _0192_
*421 _0193_
*422 _0194_
*423 _0195_
*424 _0196_
*425 _0197_
*426 _0198_
*427 _0199_
*428 _0200_
*429 _0201_
*430 _0202_
*431 _0203_
*432 _0204_
*433 _0205_
*434 _0206_
*435 _0207_
*436 _0208_
*437 _0209_
*438 _0210_
*439 _0211_
*440 _0212_
*441 _0213_
*442 _0214_
*443 _0215_
*444 _0216_
*445 _0217_
*446 _0218_
*447 _0219_
*448 _0220_
*449 _0221_
*450 _0222_
*451 _0223_
*452 _0224_
*453 _0225_
*454 _0226_
*455 _0227_
*456 _0228_
*457 _0229_
*458 _0230_
*459 _0231_
*460 _0232_
*461 _0233_
*462 _0234_
*463 _0235_
*464 _0236_
*465 _0237_
*466 _0238_
*467 _0239_
*468 _0240_
*469 _0241_
*470 _0242_
*471 _0243_
*472 _0244_
*473 _0245_
*474 _0246_
*475 _0247_
*476 _0248_
*477 _0249_
*478 _0250_
*479 _0251_
*480 _0252_
*481 _0253_
*482 _0254_
*483 _0255_
*484 _0256_
*485 _0257_
*486 _0258_
*487 _0259_
*488 _0260_
*489 _0261_
*490 _0262_
*491 _0263_
*492 _0264_
*493 _0265_
*494 _0266_
*495 _0267_
*496 _0268_
*497 _0269_
*498 _0270_
*499 _0271_
*500 _0272_
*501 _0273_
*502 _0274_
*503 _0275_
*504 _0276_
*505 _0277_
*506 _0278_
*507 _0279_
*508 _0280_
*509 _0281_
*510 _0282_
*511 _0283_
*512 _0284_
*513 _0285_
*514 _0286_
*515 _0287_
*516 _0288_
*517 _0289_
*518 _0290_
*519 _0291_
*520 _0292_
*521 _0293_
*522 _0294_
*523 _0295_
*524 _0296_
*525 _0297_
*526 _0298_
*527 _0299_
*528 _0300_
*529 _0301_
*530 _0302_
*531 _0303_
*532 _0304_
*533 _0305_
*534 _0306_
*535 _0307_
*536 _0308_
*537 _0309_
*538 _0310_
*539 _0311_
*540 _0312_
*541 _0313_
*542 _0314_
*543 _0315_
*544 _0316_
*545 _0317_
*546 _0318_
*547 _0319_
*548 _0320_
*549 _0321_
*550 _0322_
*551 _0323_
*552 _0324_
*553 _0325_
*554 _0326_
*555 _0327_
*556 _0328_
*557 _0329_
*558 _0330_
*559 _0331_
*560 _0332_
*561 _0333_
*562 _0334_
*563 _0335_
*564 _0336_
*565 _0337_
*566 _0338_
*567 _0339_
*568 _0340_
*569 _0341_
*570 _0342_
*571 _0343_
*572 _0344_
*573 _0345_
*574 _0346_
*575 _0347_
*576 _0348_
*577 _0349_
*578 _0350_
*579 _0351_
*580 _0352_
*581 _0353_
*582 _0354_
*583 _0355_
*584 _0356_
*585 _0357_
*586 _0358_
*587 _0359_
*588 _0360_
*589 _0361_
*590 _0362_
*591 _0363_
*592 _0364_
*593 _0365_
*594 _0366_
*595 _0367_
*596 _0368_
*597 _0369_
*598 _0370_
*599 _0371_
*600 _0372_
*601 _0373_
*602 _0374_
*603 _0375_
*604 _0376_
*605 _0377_
*606 _0378_
*607 _0379_
*608 _0380_
*609 _0381_
*610 _0382_
*611 _0383_
*612 _0384_
*613 _0385_
*614 _0386_
*615 _0387_
*616 _0388_
*617 _0389_
*618 _0390_
*619 _0391_
*620 _0392_
*621 _0393_
*622 _0394_
*623 _0395_
*624 _0396_
*625 _0397_
*626 _0398_
*627 _0399_
*628 _0400_
*629 _0401_
*630 _0402_
*631 _0403_
*632 _0404_
*633 _0405_
*634 _0406_
*635 _0407_
*636 _0408_
*637 _0409_
*638 _0410_
*639 _0411_
*640 _0412_
*641 _0413_
*642 _0414_
*643 _0415_
*644 _0416_
*645 _0417_
*646 _0418_
*647 _0419_
*648 _0420_
*649 _0421_
*650 _0422_
*651 _0423_
*652 _0424_
*653 _0425_
*654 _0426_
*655 _0427_
*656 _0428_
*657 _0429_
*658 _0430_
*659 _0431_
*660 _0432_
*661 _0433_
*662 _0434_
*663 _0435_
*664 _0436_
*665 _0437_
*666 _0438_
*667 _0439_
*668 _0440_
*669 _0441_
*670 _0442_
*671 _0443_
*672 _0444_
*673 _0445_
*674 _0446_
*675 _0447_
*676 _0448_
*677 _0449_
*678 _0450_
*679 _0451_
*680 _0452_
*681 _0453_
*682 _0454_
*683 _0455_
*684 _0456_
*685 _0457_
*686 _0458_
*687 _0459_
*688 _0460_
*689 _0461_
*690 _0462_
*691 _0463_
*692 _0464_
*693 _0465_
*694 _0466_
*695 _0467_
*696 _0468_
*697 _0469_
*698 _0470_
*699 _0471_
*700 _0472_
*701 _0473_
*702 _0474_
*703 _0475_
*704 _0476_
*705 _0477_
*706 _0478_
*707 _0479_
*708 _0480_
*709 _0481_
*710 _0482_
*711 _0483_
*712 _0484_
*713 _0485_
*714 _0486_
*715 _0487_
*716 _0488_
*717 _0489_
*718 _0490_
*719 _0491_
*720 _0492_
*721 _0493_
*722 _0494_
*723 _0495_
*724 _0496_
*725 _0497_
*726 _0498_
*727 _0499_
*728 _0500_
*729 _0501_
*730 _0502_
*731 _0503_
*732 _0504_
*733 _0505_
*734 _0506_
*735 _0507_
*736 _0508_
*737 _0509_
*738 _0510_
*739 _0511_
*740 _0512_
*741 _0513_
*742 _0514_
*743 _0515_
*744 _0516_
*745 _0517_
*746 _0518_
*747 _0519_
*748 _0520_
*749 _0521_
*750 _0522_
*751 _0523_
*752 _0524_
*753 _0525_
*754 _0526_
*755 _0527_
*756 _0528_
*757 _0529_
*758 _0530_
*759 _0531_
*760 _0532_
*761 _0533_
*762 _0534_
*763 _0535_
*764 _0536_
*765 _0537_
*766 _0538_
*767 _0539_
*768 _0540_
*769 _0541_
*770 _0542_
*771 _0543_
*772 _0544_
*773 _0545_
*774 _0546_
*775 _0547_
*776 _0548_
*777 _0549_
*778 _0550_
*779 _0551_
*780 _0552_
*781 _0553_
*782 _0554_
*783 _0555_
*784 _0556_
*785 _0557_
*786 _0558_
*787 _0559_
*788 _0560_
*789 _0561_
*790 _0562_
*791 _0563_
*792 _0564_
*793 _0565_
*794 _0566_
*795 _0567_
*796 _0568_
*797 _0569_
*798 _0570_
*799 _0571_
*800 _0572_
*801 _0573_
*802 _0574_
*803 _0575_
*804 _0576_
*805 _0577_
*806 _0578_
*807 _0579_
*808 _0580_
*809 _0581_
*810 _0582_
*811 _0583_
*812 _0584_
*813 _0585_
*814 _0586_
*815 _0587_
*816 _0588_
*817 _0589_
*818 _0590_
*819 _0591_
*820 _0592_
*821 _0593_
*822 _0594_
*823 _0595_
*824 _0596_
*825 _0597_
*826 _0598_
*827 _0599_
*828 _0600_
*829 _0601_
*830 _0602_
*831 _0603_
*832 _0604_
*833 _0605_
*834 _0606_
*835 _0607_
*836 _0608_
*837 _0609_
*838 _0610_
*839 _0611_
*840 _0612_
*841 _0613_
*842 _0614_
*843 _0615_
*844 _0616_
*845 _0617_
*846 _0618_
*847 _0619_
*848 _0620_
*849 _0621_
*850 _0622_
*851 _0623_
*852 _0624_
*853 _0625_
*854 _0626_
*855 _0627_
*856 _0628_
*857 _0629_
*858 _0630_
*859 _0631_
*860 _0632_
*861 _0633_
*862 _0634_
*863 _0635_
*864 _0636_
*865 _0637_
*866 _0638_
*867 _0639_
*868 _0640_
*869 _0641_
*870 _0642_
*871 _0643_
*872 _0644_
*873 _0645_
*874 _0646_
*875 _0647_
*876 _0648_
*877 _0649_
*878 _0650_
*879 _0651_
*880 _0652_
*881 _0653_
*882 _0654_
*883 _0655_
*884 _0656_
*885 _0657_
*886 _0658_
*887 _0659_
*888 _0660_
*889 _0661_
*890 _0662_
*891 _0663_
*892 _0664_
*893 _0665_
*894 _0666_
*895 _0667_
*896 _0668_
*897 _0669_
*898 _0670_
*899 _0671_
*900 _0672_
*901 _0673_
*902 _0674_
*903 _0675_
*904 _0676_
*905 _0677_
*906 _0678_
*907 _0679_
*908 _0680_
*909 _0681_
*910 _0682_
*911 _0683_
*912 _0684_
*913 _0685_
*914 _0686_
*915 _0687_
*916 _0688_
*917 _0689_
*918 _0690_
*919 _0691_
*920 _0692_
*921 _0693_
*922 _0694_
*923 _0695_
*924 _0696_
*925 _0697_
*926 _0698_
*927 _0699_
*928 _0700_
*929 _0701_
*930 _0702_
*931 _0703_
*932 _0704_
*933 _0705_
*934 _0706_
*935 _0707_
*936 _0708_
*937 _0709_
*938 _0710_
*939 _0711_
*940 _0712_
*941 _0713_
*942 _0714_
*943 _0715_
*944 _0716_
*945 _0717_
*946 _0718_
*947 _0719_
*948 _0720_
*949 _0721_
*950 _0722_
*951 _0723_
*952 _0724_
*953 _0725_
*954 _0726_
*955 _0727_
*956 _0728_
*957 _0729_
*958 _0730_
*959 _0731_
*960 _0732_
*961 _0733_
*962 _0734_
*963 _0735_
*964 _0736_
*965 _0737_
*966 _0738_
*967 _0739_
*968 _0740_
*969 _0741_
*970 _0742_
*971 _0743_
*972 _0744_
*973 _0745_
*974 _0746_
*975 _0747_
*976 _0748_
*977 _0749_
*978 clknet_0_clk
*979 clknet_4_0_0_clk
*980 clknet_4_10_0_clk
*981 clknet_4_11_0_clk
*982 clknet_4_12_0_clk
*983 clknet_4_13_0_clk
*984 clknet_4_14_0_clk
*985 clknet_4_15_0_clk
*986 clknet_4_1_0_clk
*987 clknet_4_2_0_clk
*988 clknet_4_3_0_clk
*989 clknet_4_4_0_clk
*990 clknet_4_5_0_clk
*991 clknet_4_6_0_clk
*992 clknet_4_7_0_clk
*993 clknet_4_8_0_clk
*994 clknet_4_9_0_clk
*995 net1
*996 net10
*997 net100
*998 net101
*999 net102
*1000 net103
*1001 net104
*1002 net105
*1003 net106
*1004 net107
*1005 net108
*1006 net109
*1007 net11
*1008 net110
*1009 net111
*1010 net112
*1011 net113
*1012 net114
*1013 net115
*1014 net116
*1015 net117
*1016 net118
*1017 net119
*1018 net12
*1019 net120
*1020 net121
*1021 net122
*1022 net123
*1023 net124
*1024 net125
*1025 net126
*1026 net127
*1027 net128
*1028 net129
*1029 net13
*1030 net130
*1031 net131
*1032 net132
*1033 net133
*1034 net134
*1035 net135
*1036 net136
*1037 net137
*1038 net138
*1039 net139
*1040 net140
*1041 net141
*1042 net142
*1043 net143
*1044 net144
*1045 net145
*1046 net146
*1047 net147
*1048 net148
*1049 net149
*1050 net150
*1051 net151
*1052 net152
*1053 net153
*1054 net154
*1055 net155
*1056 net156
*1057 net157
*1058 net158
*1059 net159
*1060 net160
*1061 net161
*1062 net162
*1063 net163
*1064 net164
*1065 net165
*1066 net166
*1067 net167
*1068 net168
*1069 net169
*1070 net170
*1071 net171
*1072 net172
*1073 net173
*1074 net174
*1075 net175
*1076 net176
*1077 net177
*1078 net178
*1079 net179
*1080 net180
*1081 net181
*1082 net182
*1083 net183
*1084 net184
*1085 net185
*1086 net186
*1087 net187
*1088 net188
*1089 net189
*1090 net190
*1091 net2
*1092 net25
*1093 net26
*1094 net27
*1095 net28
*1096 net29
*1097 net3
*1098 net30
*1099 net31
*1100 net32
*1101 net33
*1102 net34
*1103 net35
*1104 net36
*1105 net37
*1106 net38
*1107 net39
*1108 net4
*1109 net40
*1110 net41
*1111 net42
*1112 net43
*1113 net44
*1114 net45
*1115 net46
*1116 net47
*1117 net48
*1118 net49
*1119 net5
*1120 net50
*1121 net51
*1122 net52
*1123 net53
*1124 net54
*1125 net55
*1126 net56
*1127 net57
*1128 net58
*1129 net59
*1130 net6
*1131 net60
*1132 net61
*1133 net62
*1134 net63
*1135 net64
*1136 net65
*1137 net66
*1138 net67
*1139 net68
*1140 net69
*1141 net7
*1142 net70
*1143 net71
*1144 net72
*1145 net73
*1146 net74
*1147 net75
*1148 net76
*1149 net77
*1150 net78
*1151 net79
*1152 net8
*1153 net80
*1154 net81
*1155 net82
*1156 net83
*1157 net84
*1158 net85
*1159 net86
*1160 net87
*1161 net88
*1162 net89
*1163 net9
*1164 net90
*1165 net91
*1166 net92
*1167 net93
*1168 net94
*1169 net95
*1170 net96
*1171 net97
*1172 net98
*1173 net99
*1174 ANTENNA_1
*1175 FILLER_0_0_109
*1176 FILLER_0_0_113
*1177 FILLER_0_0_125
*1178 FILLER_0_0_137
*1179 FILLER_0_0_141
*1180 FILLER_0_0_15
*1181 FILLER_0_0_153
*1182 FILLER_0_0_165
*1183 FILLER_0_0_169
*1184 FILLER_0_0_181
*1185 FILLER_0_0_193
*1186 FILLER_0_0_197
*1187 FILLER_0_0_209
*1188 FILLER_0_0_221
*1189 FILLER_0_0_225
*1190 FILLER_0_0_237
*1191 FILLER_0_0_249
*1192 FILLER_0_0_253
*1193 FILLER_0_0_265
*1194 FILLER_0_0_27
*1195 FILLER_0_0_277
*1196 FILLER_0_0_281
*1197 FILLER_0_0_29
*1198 FILLER_0_0_293
*1199 FILLER_0_0_3
*1200 FILLER_0_0_305
*1201 FILLER_0_0_309
*1202 FILLER_0_0_321
*1203 FILLER_0_0_333
*1204 FILLER_0_0_41
*1205 FILLER_0_0_53
*1206 FILLER_0_0_57
*1207 FILLER_0_0_69
*1208 FILLER_0_0_81
*1209 FILLER_0_0_85
*1210 FILLER_0_0_97
*1211 FILLER_0_10_107
*1212 FILLER_0_10_115
*1213 FILLER_0_10_127
*1214 FILLER_0_10_137
*1215 FILLER_0_10_145
*1216 FILLER_0_10_153
*1217 FILLER_0_10_161
*1218 FILLER_0_10_169
*1219 FILLER_0_10_181
*1220 FILLER_0_10_193
*1221 FILLER_0_10_213
*1222 FILLER_0_10_231
*1223 FILLER_0_10_240
*1224 FILLER_0_10_253
*1225 FILLER_0_10_27
*1226 FILLER_0_10_272
*1227 FILLER_0_10_29
*1228 FILLER_0_10_291
*1229 FILLER_0_10_306
*1230 FILLER_0_10_309
*1231 FILLER_0_10_313
*1232 FILLER_0_10_318
*1233 FILLER_0_10_322
*1234 FILLER_0_10_331
*1235 FILLER_0_10_42
*1236 FILLER_0_10_59
*1237 FILLER_0_10_65
*1238 FILLER_0_10_85
*1239 FILLER_0_10_95
*1240 FILLER_0_11_108
*1241 FILLER_0_11_149
*1242 FILLER_0_11_153
*1243 FILLER_0_11_166
*1244 FILLER_0_11_169
*1245 FILLER_0_11_186
*1246 FILLER_0_11_206
*1247 FILLER_0_11_222
*1248 FILLER_0_11_225
*1249 FILLER_0_11_255
*1250 FILLER_0_11_259
*1251 FILLER_0_11_267
*1252 FILLER_0_11_276
*1253 FILLER_0_11_281
*1254 FILLER_0_11_3
*1255 FILLER_0_11_316
*1256 FILLER_0_11_331
*1257 FILLER_0_11_35
*1258 FILLER_0_11_43
*1259 FILLER_0_11_54
*1260 FILLER_0_11_64
*1261 FILLER_0_11_86
*1262 FILLER_0_12_102
*1263 FILLER_0_12_110
*1264 FILLER_0_12_130
*1265 FILLER_0_12_139
*1266 FILLER_0_12_148
*1267 FILLER_0_12_165
*1268 FILLER_0_12_176
*1269 FILLER_0_12_186
*1270 FILLER_0_12_195
*1271 FILLER_0_12_197
*1272 FILLER_0_12_205
*1273 FILLER_0_12_213
*1274 FILLER_0_12_231
*1275 FILLER_0_12_242
*1276 FILLER_0_12_246
*1277 FILLER_0_12_261
*1278 FILLER_0_12_280
*1279 FILLER_0_12_29
*1280 FILLER_0_12_292
*1281 FILLER_0_12_3
*1282 FILLER_0_12_303
*1283 FILLER_0_12_307
*1284 FILLER_0_12_333
*1285 FILLER_0_12_51
*1286 FILLER_0_12_59
*1287 FILLER_0_12_82
*1288 FILLER_0_12_85
*1289 FILLER_0_13_105
*1290 FILLER_0_13_111
*1291 FILLER_0_13_138
*1292 FILLER_0_13_150
*1293 FILLER_0_13_154
*1294 FILLER_0_13_160
*1295 FILLER_0_13_169
*1296 FILLER_0_13_184
*1297 FILLER_0_13_22
*1298 FILLER_0_13_220
*1299 FILLER_0_13_225
*1300 FILLER_0_13_229
*1301 FILLER_0_13_254
*1302 FILLER_0_13_262
*1303 FILLER_0_13_270
*1304 FILLER_0_13_276
*1305 FILLER_0_13_3
*1306 FILLER_0_13_305
*1307 FILLER_0_13_312
*1308 FILLER_0_13_332
*1309 FILLER_0_13_43
*1310 FILLER_0_13_49
*1311 FILLER_0_13_84
*1312 FILLER_0_14_141
*1313 FILLER_0_14_171
*1314 FILLER_0_14_184
*1315 FILLER_0_14_197
*1316 FILLER_0_14_224
*1317 FILLER_0_14_233
*1318 FILLER_0_14_250
*1319 FILLER_0_14_27
*1320 FILLER_0_14_277
*1321 FILLER_0_14_296
*1322 FILLER_0_14_3
*1323 FILLER_0_14_305
*1324 FILLER_0_14_314
*1325 FILLER_0_14_326
*1326 FILLER_0_14_334
*1327 FILLER_0_14_62
*1328 FILLER_0_14_85
*1329 FILLER_0_14_97
*1330 FILLER_0_15_102
*1331 FILLER_0_15_113
*1332 FILLER_0_15_147
*1333 FILLER_0_15_159
*1334 FILLER_0_15_167
*1335 FILLER_0_15_169
*1336 FILLER_0_15_174
*1337 FILLER_0_15_192
*1338 FILLER_0_15_205
*1339 FILLER_0_15_223
*1340 FILLER_0_15_264
*1341 FILLER_0_15_274
*1342 FILLER_0_15_28
*1343 FILLER_0_15_288
*1344 FILLER_0_15_308
*1345 FILLER_0_15_330
*1346 FILLER_0_15_334
*1347 FILLER_0_15_34
*1348 FILLER_0_15_43
*1349 FILLER_0_15_47
*1350 FILLER_0_15_73
*1351 FILLER_0_16_112
*1352 FILLER_0_16_124
*1353 FILLER_0_16_135
*1354 FILLER_0_16_139
*1355 FILLER_0_16_141
*1356 FILLER_0_16_174
*1357 FILLER_0_16_191
*1358 FILLER_0_16_195
*1359 FILLER_0_16_235
*1360 FILLER_0_16_25
*1361 FILLER_0_16_272
*1362 FILLER_0_16_288
*1363 FILLER_0_16_3
*1364 FILLER_0_16_305
*1365 FILLER_0_16_309
*1366 FILLER_0_16_317
*1367 FILLER_0_16_37
*1368 FILLER_0_16_68
*1369 FILLER_0_16_7
*1370 FILLER_0_16_83
*1371 FILLER_0_17_110
*1372 FILLER_0_17_165
*1373 FILLER_0_17_169
*1374 FILLER_0_17_185
*1375 FILLER_0_17_21
*1376 FILLER_0_17_223
*1377 FILLER_0_17_225
*1378 FILLER_0_17_259
*1379 FILLER_0_17_277
*1380 FILLER_0_17_281
*1381 FILLER_0_17_293
*1382 FILLER_0_17_3
*1383 FILLER_0_17_301
*1384 FILLER_0_17_321
*1385 FILLER_0_17_325
*1386 FILLER_0_17_333
*1387 FILLER_0_17_53
*1388 FILLER_0_18_121
*1389 FILLER_0_18_129
*1390 FILLER_0_18_157
*1391 FILLER_0_18_167
*1392 FILLER_0_18_186
*1393 FILLER_0_18_19
*1394 FILLER_0_18_190
*1395 FILLER_0_18_205
*1396 FILLER_0_18_225
*1397 FILLER_0_18_251
*1398 FILLER_0_18_269
*1399 FILLER_0_18_287
*1400 FILLER_0_18_309
*1401 FILLER_0_18_315
*1402 FILLER_0_18_322
*1403 FILLER_0_18_331
*1404 FILLER_0_18_72
*1405 FILLER_0_19_108
*1406 FILLER_0_19_113
*1407 FILLER_0_19_130
*1408 FILLER_0_19_248
*1409 FILLER_0_19_25
*1410 FILLER_0_19_284
*1411 FILLER_0_19_3
*1412 FILLER_0_19_301
*1413 FILLER_0_19_314
*1414 FILLER_0_19_334
*1415 FILLER_0_19_36
*1416 FILLER_0_19_54
*1417 FILLER_0_19_57
*1418 FILLER_0_19_74
*1419 FILLER_0_19_80
*1420 FILLER_0_19_98
*1421 FILLER_0_1_105
*1422 FILLER_0_1_111
*1423 FILLER_0_1_113
*1424 FILLER_0_1_125
*1425 FILLER_0_1_133
*1426 FILLER_0_1_15
*1427 FILLER_0_1_150
*1428 FILLER_0_1_162
*1429 FILLER_0_1_169
*1430 FILLER_0_1_180
*1431 FILLER_0_1_192
*1432 FILLER_0_1_204
*1433 FILLER_0_1_216
*1434 FILLER_0_1_225
*1435 FILLER_0_1_237
*1436 FILLER_0_1_249
*1437 FILLER_0_1_261
*1438 FILLER_0_1_27
*1439 FILLER_0_1_273
*1440 FILLER_0_1_279
*1441 FILLER_0_1_281
*1442 FILLER_0_1_293
*1443 FILLER_0_1_3
*1444 FILLER_0_1_305
*1445 FILLER_0_1_317
*1446 FILLER_0_1_329
*1447 FILLER_0_1_39
*1448 FILLER_0_1_51
*1449 FILLER_0_1_55
*1450 FILLER_0_1_57
*1451 FILLER_0_1_69
*1452 FILLER_0_1_81
*1453 FILLER_0_1_93
*1454 FILLER_0_20_108
*1455 FILLER_0_20_127
*1456 FILLER_0_20_139
*1457 FILLER_0_20_165
*1458 FILLER_0_20_189
*1459 FILLER_0_20_195
*1460 FILLER_0_20_219
*1461 FILLER_0_20_282
*1462 FILLER_0_20_29
*1463 FILLER_0_20_293
*1464 FILLER_0_20_3
*1465 FILLER_0_20_305
*1466 FILLER_0_20_317
*1467 FILLER_0_20_55
*1468 FILLER_0_20_81
*1469 FILLER_0_20_85
*1470 FILLER_0_20_96
*1471 FILLER_0_21_108
*1472 FILLER_0_21_136
*1473 FILLER_0_21_166
*1474 FILLER_0_21_176
*1475 FILLER_0_21_223
*1476 FILLER_0_21_231
*1477 FILLER_0_21_249
*1478 FILLER_0_21_261
*1479 FILLER_0_21_269
*1480 FILLER_0_21_277
*1481 FILLER_0_21_324
*1482 FILLER_0_21_332
*1483 FILLER_0_21_65
*1484 FILLER_0_21_75
*1485 FILLER_0_22_141
*1486 FILLER_0_22_163
*1487 FILLER_0_22_190
*1488 FILLER_0_22_213
*1489 FILLER_0_22_217
*1490 FILLER_0_22_234
*1491 FILLER_0_22_246
*1492 FILLER_0_22_260
*1493 FILLER_0_22_278
*1494 FILLER_0_22_29
*1495 FILLER_0_22_290
*1496 FILLER_0_22_3
*1497 FILLER_0_22_304
*1498 FILLER_0_22_317
*1499 FILLER_0_22_43
*1500 FILLER_0_22_52
*1501 FILLER_0_22_60
*1502 FILLER_0_22_85
*1503 FILLER_0_23_111
*1504 FILLER_0_23_140
*1505 FILLER_0_23_166
*1506 FILLER_0_23_176
*1507 FILLER_0_23_218
*1508 FILLER_0_23_225
*1509 FILLER_0_23_231
*1510 FILLER_0_23_276
*1511 FILLER_0_23_305
*1512 FILLER_0_23_323
*1513 FILLER_0_23_333
*1514 FILLER_0_23_40
*1515 FILLER_0_23_52
*1516 FILLER_0_23_57
*1517 FILLER_0_23_75
*1518 FILLER_0_23_81
*1519 FILLER_0_24_136
*1520 FILLER_0_24_141
*1521 FILLER_0_24_149
*1522 FILLER_0_24_191
*1523 FILLER_0_24_195
*1524 FILLER_0_24_205
*1525 FILLER_0_24_223
*1526 FILLER_0_24_227
*1527 FILLER_0_24_235
*1528 FILLER_0_24_241
*1529 FILLER_0_24_253
*1530 FILLER_0_24_26
*1531 FILLER_0_24_261
*1532 FILLER_0_24_265
*1533 FILLER_0_24_277
*1534 FILLER_0_24_29
*1535 FILLER_0_24_290
*1536 FILLER_0_24_3
*1537 FILLER_0_24_317
*1538 FILLER_0_24_334
*1539 FILLER_0_24_56
*1540 FILLER_0_24_82
*1541 FILLER_0_24_85
*1542 FILLER_0_24_9
*1543 FILLER_0_24_93
*1544 FILLER_0_24_98
*1545 FILLER_0_25_107
*1546 FILLER_0_25_111
*1547 FILLER_0_25_123
*1548 FILLER_0_25_127
*1549 FILLER_0_25_149
*1550 FILLER_0_25_161
*1551 FILLER_0_25_167
*1552 FILLER_0_25_169
*1553 FILLER_0_25_19
*1554 FILLER_0_25_192
*1555 FILLER_0_25_210
*1556 FILLER_0_25_219
*1557 FILLER_0_25_268
*1558 FILLER_0_25_30
*1559 FILLER_0_25_311
*1560 FILLER_0_25_318
*1561 FILLER_0_25_53
*1562 FILLER_0_25_57
*1563 FILLER_0_25_71
*1564 FILLER_0_26_105
*1565 FILLER_0_26_111
*1566 FILLER_0_26_138
*1567 FILLER_0_26_141
*1568 FILLER_0_26_169
*1569 FILLER_0_26_190
*1570 FILLER_0_26_207
*1571 FILLER_0_26_227
*1572 FILLER_0_26_259
*1573 FILLER_0_26_27
*1574 FILLER_0_26_278
*1575 FILLER_0_26_298
*1576 FILLER_0_26_3
*1577 FILLER_0_26_304
*1578 FILLER_0_26_325
*1579 FILLER_0_26_333
*1580 FILLER_0_26_37
*1581 FILLER_0_26_55
*1582 FILLER_0_26_72
*1583 FILLER_0_26_96
*1584 FILLER_0_27_102
*1585 FILLER_0_27_132
*1586 FILLER_0_27_167
*1587 FILLER_0_27_19
*1588 FILLER_0_27_240
*1589 FILLER_0_27_263
*1590 FILLER_0_27_271
*1591 FILLER_0_27_300
*1592 FILLER_0_27_308
*1593 FILLER_0_27_323
*1594 FILLER_0_27_327
*1595 FILLER_0_27_36
*1596 FILLER_0_28_109
*1597 FILLER_0_28_11
*1598 FILLER_0_28_164
*1599 FILLER_0_28_220
*1600 FILLER_0_28_250
*1601 FILLER_0_28_253
*1602 FILLER_0_28_259
*1603 FILLER_0_28_276
*1604 FILLER_0_28_282
*1605 FILLER_0_28_3
*1606 FILLER_0_28_305
*1607 FILLER_0_28_313
*1608 FILLER_0_28_319
*1609 FILLER_0_28_59
*1610 FILLER_0_28_79
*1611 FILLER_0_28_83
*1612 FILLER_0_29_122
*1613 FILLER_0_29_136
*1614 FILLER_0_29_162
*1615 FILLER_0_29_185
*1616 FILLER_0_29_19
*1617 FILLER_0_29_203
*1618 FILLER_0_29_222
*1619 FILLER_0_29_225
*1620 FILLER_0_29_240
*1621 FILLER_0_29_252
*1622 FILLER_0_29_264
*1623 FILLER_0_29_268
*1624 FILLER_0_29_279
*1625 FILLER_0_29_281
*1626 FILLER_0_29_294
*1627 FILLER_0_29_311
*1628 FILLER_0_29_325
*1629 FILLER_0_29_333
*1630 FILLER_0_29_78
*1631 FILLER_0_2_100
*1632 FILLER_0_2_112
*1633 FILLER_0_2_118
*1634 FILLER_0_2_139
*1635 FILLER_0_2_141
*1636 FILLER_0_2_15
*1637 FILLER_0_2_169
*1638 FILLER_0_2_177
*1639 FILLER_0_2_187
*1640 FILLER_0_2_195
*1641 FILLER_0_2_200
*1642 FILLER_0_2_212
*1643 FILLER_0_2_231
*1644 FILLER_0_2_239
*1645 FILLER_0_2_246
*1646 FILLER_0_2_250
*1647 FILLER_0_2_253
*1648 FILLER_0_2_265
*1649 FILLER_0_2_27
*1650 FILLER_0_2_277
*1651 FILLER_0_2_289
*1652 FILLER_0_2_29
*1653 FILLER_0_2_3
*1654 FILLER_0_2_301
*1655 FILLER_0_2_307
*1656 FILLER_0_2_309
*1657 FILLER_0_2_321
*1658 FILLER_0_2_333
*1659 FILLER_0_2_41
*1660 FILLER_0_2_62
*1661 FILLER_0_2_74
*1662 FILLER_0_2_82
*1663 FILLER_0_2_85
*1664 FILLER_0_2_89
*1665 FILLER_0_2_96
*1666 FILLER_0_30_101
*1667 FILLER_0_30_126
*1668 FILLER_0_30_136
*1669 FILLER_0_30_15
*1670 FILLER_0_30_269
*1671 FILLER_0_30_27
*1672 FILLER_0_30_3
*1673 FILLER_0_30_302
*1674 FILLER_0_30_333
*1675 FILLER_0_30_36
*1676 FILLER_0_30_42
*1677 FILLER_0_30_54
*1678 FILLER_0_30_65
*1679 FILLER_0_31_113
*1680 FILLER_0_31_133
*1681 FILLER_0_31_163
*1682 FILLER_0_31_167
*1683 FILLER_0_31_177
*1684 FILLER_0_31_201
*1685 FILLER_0_31_270
*1686 FILLER_0_31_278
*1687 FILLER_0_31_28