*SPEF "ieee 1481-1999"
*DESIGN "tt_um_FanCTRL_DomnikBrandstetter"
*DATE "07:44:38 Wednesday April 10, 2024"
*VENDOR "The OpenROAD Project"
*PROGRAM "OpenROAD"
*VERSION "0889970d1790a2617e69f253221b8bd7626e51dc"
*DESIGN_FLOW "NAME_SCOPE LOCAL" "PIN_CAP NONE"
*DIVIDER /
*DELIMITER :
*BUS_DELIMITER []
*T_UNIT 1 NS
*C_UNIT 1 PF
*R_UNIT 1 OHM
*L_UNIT 1 HENRY

*NAME_MAP
*3 clk
*4 ena
*5 rst_n
*6 ui_in[0]
*7 ui_in[1]
*8 ui_in[2]
*9 ui_in[3]
*10 ui_in[4]
*11 ui_in[5]
*12 ui_in[6]
*13 ui_in[7]
*14 uio_in[0]
*15 uio_in[1]
*16 uio_in[2]
*17 uio_in[3]
*18 uio_in[4]
*19 uio_in[5]
*20 uio_in[6]
*21 uio_in[7]
*22 net15
*23 net16
*24 net17
*25 net18
*26 net19
*27 net20
*28 net21
*29 net22
*30 uio_out[0]
*31 uio_out[1]
*32 uio_out[2]
*33 uio_out[3]
*34 uio_out[4]
*35 net12
*36 net13
*37 net14
*38 uo_out[0]
*39 uo_out[1]
*40 uo_out[2]
*41 uo_out[3]
*42 uo_out[4]
*43 uo_out[5]
*44 uo_out[6]
*45 uo_out[7]
*46 FAN\.PID\.MUL\.MUL_Done_STRB_reg
*47 FAN\.PID\.MUL\.MUL_Start_STRB_i
*48 FAN\.PID\.MUL\.MulCounter\[0\]
*49 FAN\.PID\.MUL\.MulCounter\[1\]
*50 FAN\.PID\.MUL\.MulCounter\[2\]
*51 FAN\.PID\.MUL\.MulCounter\[3\]
*52 FAN\.PID\.MUL\.MulCounter\[4\]
*53 FAN\.PID\.MUL\.a_in_reg\[0\]
*54 FAN\.PID\.MUL\.a_in_reg\[10\]
*55 FAN\.PID\.MUL\.a_in_reg\[11\]
*56 FAN\.PID\.MUL\.a_in_reg\[12\]
*57 FAN\.PID\.MUL\.a_in_reg\[13\]
*58 FAN\.PID\.MUL\.a_in_reg\[14\]
*59 FAN\.PID\.MUL\.a_in_reg\[15\]
*60 FAN\.PID\.MUL\.a_in_reg\[16\]
*61 FAN\.PID\.MUL\.a_in_reg\[17\]
*62 FAN\.PID\.MUL\.a_in_reg\[18\]
*63 FAN\.PID\.MUL\.a_in_reg\[19\]
*64 FAN\.PID\.MUL\.a_in_reg\[1\]
*65 FAN\.PID\.MUL\.a_in_reg\[20\]
*66 FAN\.PID\.MUL\.a_in_reg\[21\]
*67 FAN\.PID\.MUL\.a_in_reg\[22\]
*68 FAN\.PID\.MUL\.a_in_reg\[23\]
*69 FAN\.PID\.MUL\.a_in_reg\[24\]
*70 FAN\.PID\.MUL\.a_in_reg\[25\]
*71 FAN\.PID\.MUL\.a_in_reg\[2\]
*72 FAN\.PID\.MUL\.a_in_reg\[3\]
*73 FAN\.PID\.MUL\.a_in_reg\[4\]
*74 FAN\.PID\.MUL\.a_in_reg\[5\]
*75 FAN\.PID\.MUL\.a_in_reg\[6\]
*76 FAN\.PID\.MUL\.a_in_reg\[7\]
*77 FAN\.PID\.MUL\.a_in_reg\[8\]
*78 FAN\.PID\.MUL\.a_in_reg\[9\]
*79 FAN\.PID\.MUL\.b_in_reg\[0\]
*80 FAN\.PID\.MUL\.b_in_reg\[10\]
*81 FAN\.PID\.MUL\.b_in_reg\[11\]
*82 FAN\.PID\.MUL\.b_in_reg\[12\]
*83 FAN\.PID\.MUL\.b_in_reg\[13\]
*84 FAN\.PID\.MUL\.b_in_reg\[14\]
*85 FAN\.PID\.MUL\.b_in_reg\[15\]
*86 FAN\.PID\.MUL\.b_in_reg\[16\]
*87 FAN\.PID\.MUL\.b_in_reg\[17\]
*88 FAN\.PID\.MUL\.b_in_reg\[18\]
*89 FAN\.PID\.MUL\.b_in_reg\[19\]
*90 FAN\.PID\.MUL\.b_in_reg\[1\]
*91 FAN\.PID\.MUL\.b_in_reg\[20\]
*92 FAN\.PID\.MUL\.b_in_reg\[21\]
*93 FAN\.PID\.MUL\.b_in_reg\[22\]
*94 FAN\.PID\.MUL\.b_in_reg\[23\]
*95 FAN\.PID\.MUL\.b_in_reg\[24\]
*96 FAN\.PID\.MUL\.b_in_reg\[25\]
*97 FAN\.PID\.MUL\.b_in_reg\[2\]
*98 FAN\.PID\.MUL\.b_in_reg\[3\]
*99 FAN\.PID\.MUL\.b_in_reg\[4\]
*100 FAN\.PID\.MUL\.b_in_reg\[5\]
*101 FAN\.PID\.MUL\.b_in_reg\[6\]
*102 FAN\.PID\.MUL\.b_in_reg\[7\]
*103 FAN\.PID\.MUL\.b_in_reg\[8\]
*104 FAN\.PID\.MUL\.b_in_reg\[9\]
*105 FAN\.PID\.MUL\.clkCounterValue\[0\]
*106 FAN\.PID\.MUL\.clkCounterValue\[1\]
*107 FAN\.PID\.MUL\.clkCounterValue\[2\]
*108 FAN\.PID\.MUL\.clkCounterValue\[3\]
*109 FAN\.PID\.MUL\.clkCounterValue\[4\]
*110 FAN\.PID\.MUL\.clkCounterValue\[5\]
*111 FAN\.PID\.MUL\.clkCounterValue\[6\]
*112 FAN\.PID\.MUL\.out_o\[0\]
*113 FAN\.PID\.MUL\.out_o\[10\]
*114 FAN\.PID\.MUL\.out_o\[11\]
*115 FAN\.PID\.MUL\.out_o\[12\]
*116 FAN\.PID\.MUL\.out_o\[13\]
*117 FAN\.PID\.MUL\.out_o\[14\]
*118 FAN\.PID\.MUL\.out_o\[15\]
*119 FAN\.PID\.MUL\.out_o\[16\]
*120 FAN\.PID\.MUL\.out_o\[17\]
*121 FAN\.PID\.MUL\.out_o\[18\]
*122 FAN\.PID\.MUL\.out_o\[19\]
*123 FAN\.PID\.MUL\.out_o\[1\]
*124 FAN\.PID\.MUL\.out_o\[20\]
*125 FAN\.PID\.MUL\.out_o\[21\]
*126 FAN\.PID\.MUL\.out_o\[22\]
*127 FAN\.PID\.MUL\.out_o\[23\]
*128 FAN\.PID\.MUL\.out_o\[24\]
*129 FAN\.PID\.MUL\.out_o\[25\]
*130 FAN\.PID\.MUL\.out_o\[2\]
*131 FAN\.PID\.MUL\.out_o\[3\]
*132 FAN\.PID\.MUL\.out_o\[4\]
*133 FAN\.PID\.MUL\.out_o\[5\]
*134 FAN\.PID\.MUL\.out_o\[6\]
*135 FAN\.PID\.MUL\.out_o\[7\]
*136 FAN\.PID\.MUL\.out_o\[8\]
*137 FAN\.PID\.MUL\.out_o\[9\]
*138 FAN\.PID\.clk_en_PID_buffer
*139 FAN\.PID\.error_Val_scaled_m0\[10\]
*140 FAN\.PID\.error_Val_scaled_m0\[6\]
*141 FAN\.PID\.error_Val_scaled_m0\[7\]
*142 FAN\.PID\.error_Val_scaled_m0\[8\]
*143 FAN\.PID\.error_Val_scaled_m0\[9\]
*144 FAN\.PID\.error_Val_scaled_m1\[10\]
*145 FAN\.PID\.error_Val_scaled_m1\[6\]
*146 FAN\.PID\.error_Val_scaled_m1\[7\]
*147 FAN\.PID\.error_Val_scaled_m1\[8\]
*148 FAN\.PID\.error_Val_scaled_m1\[9\]
*149 FAN\.PID\.error_Val_scaled_m2\[10\]
*150 FAN\.PID\.error_Val_scaled_m2\[6\]
*151 FAN\.PID\.error_Val_scaled_m2\[7\]
*152 FAN\.PID\.error_Val_scaled_m2\[8\]
*153 FAN\.PID\.error_Val_scaled_m2\[9\]
*154 FAN\.PID\.out_Val_sreg\[0\]\[10\]
*155 FAN\.PID\.out_Val_sreg\[0\]\[11\]
*156 FAN\.PID\.out_Val_sreg\[0\]\[12\]
*157 FAN\.PID\.out_Val_sreg\[0\]\[13\]
*158 FAN\.PID\.out_Val_sreg\[0\]\[14\]
*159 FAN\.PID\.out_Val_sreg\[0\]\[15\]
*160 FAN\.PID\.out_Val_sreg\[0\]\[16\]
*161 FAN\.PID\.out_Val_sreg\[0\]\[17\]
*162 FAN\.PID\.out_Val_sreg\[0\]\[18\]
*163 FAN\.PID\.out_Val_sreg\[0\]\[19\]
*164 FAN\.PID\.out_Val_sreg\[0\]\[20\]
*165 FAN\.PID\.out_Val_sreg\[0\]\[21\]
*166 FAN\.PID\.out_Val_sreg\[0\]\[22\]
*167 FAN\.PID\.out_Val_sreg\[0\]\[23\]
*168 FAN\.PID\.out_Val_sreg\[0\]\[24\]
*169 FAN\.PID\.out_Val_sreg\[0\]\[25\]
*170 FAN\.PID\.out_Val_sreg\[0\]\[6\]
*171 FAN\.PID\.out_Val_sreg\[0\]\[7\]
*172 FAN\.PID\.out_Val_sreg\[0\]\[8\]
*173 FAN\.PID\.out_Val_sreg\[0\]\[9\]
*174 FAN\.PID\.out_Val_sreg\[1\]\[10\]
*175 FAN\.PID\.out_Val_sreg\[1\]\[11\]
*176 FAN\.PID\.out_Val_sreg\[1\]\[12\]
*177 FAN\.PID\.out_Val_sreg\[1\]\[13\]
*178 FAN\.PID\.out_Val_sreg\[1\]\[14\]
*179 FAN\.PID\.out_Val_sreg\[1\]\[15\]
*180 FAN\.PID\.out_Val_sreg\[1\]\[16\]
*181 FAN\.PID\.out_Val_sreg\[1\]\[17\]
*182 FAN\.PID\.out_Val_sreg\[1\]\[18\]
*183 FAN\.PID\.out_Val_sreg\[1\]\[19\]
*184 FAN\.PID\.out_Val_sreg\[1\]\[20\]
*185 FAN\.PID\.out_Val_sreg\[1\]\[21\]
*186 FAN\.PID\.out_Val_sreg\[1\]\[22\]
*187 FAN\.PID\.out_Val_sreg\[1\]\[23\]
*188 FAN\.PID\.out_Val_sreg\[1\]\[24\]
*189 FAN\.PID\.out_Val_sreg\[1\]\[25\]
*190 FAN\.PID\.out_Val_sreg\[1\]\[6\]
*191 FAN\.PID\.out_Val_sreg\[1\]\[7\]
*192 FAN\.PID\.out_Val_sreg\[1\]\[8\]
*193 FAN\.PID\.out_Val_sreg\[1\]\[9\]
*194 FAN\.PID\.pipeStage\[0\]
*195 FAN\.PID\.pipeStage\[1\]
*196 FAN\.PID\.pipeStage\[2\]
*197 FAN\.PID_clk_div_counterValue\[0\]
*198 FAN\.PID_clk_div_counterValue\[10\]
*199 FAN\.PID_clk_div_counterValue\[11\]
*200 FAN\.PID_clk_div_counterValue\[12\]
*201 FAN\.PID_clk_div_counterValue\[13\]
*202 FAN\.PID_clk_div_counterValue\[14\]
*203 FAN\.PID_clk_div_counterValue\[15\]
*204 FAN\.PID_clk_div_counterValue\[16\]
*205 FAN\.PID_clk_div_counterValue\[17\]
*206 FAN\.PID_clk_div_counterValue\[1\]
*207 FAN\.PID_clk_div_counterValue\[2\]
*208 FAN\.PID_clk_div_counterValue\[3\]
*209 FAN\.PID_clk_div_counterValue\[4\]
*210 FAN\.PID_clk_div_counterValue\[5\]
*211 FAN\.PID_clk_div_counterValue\[6\]
*212 FAN\.PID_clk_div_counterValue\[7\]
*213 FAN\.PID_clk_div_counterValue\[8\]
*214 FAN\.PID_clk_div_counterValue\[9\]
*215 FAN\.PWM\.PWM_pin_o
*216 FAN\.PWM\.clk_en_i
*217 FAN\.PWM\.counterValue\[0\]
*218 FAN\.PWM\.counterValue\[1\]
*219 FAN\.PWM\.counterValue\[2\]
*220 FAN\.PWM\.counterValue\[3\]
*221 FAN\.PWM\.counterValue\[4\]
*222 FAN\.PWM\.counter\[0\]
*223 FAN\.PWM\.counter\[1\]
*224 FAN\.PWM\.counter\[2\]
*225 FAN\.PWM\.counter\[3\]
*226 FAN\.PWM\.counter\[4\]
*227 FAN\.PWM\.periodCounterValue\[1\]
*228 _0000_
*229 _0001_
*230 _0002_
*231 _0003_
*232 _0004_
*233 _0005_
*234 _0006_
*235 _0007_
*236 _0008_
*237 _0009_
*238 _0010_
*239 _0011_
*240 _0012_
*241 _0013_
*242 _0014_
*243 _0015_
*244 _0016_
*245 _0017_
*246 _0018_
*247 _0019_
*248 _0020_
*249 _0021_
*250 _0022_
*251 _0023_
*252 _0024_
*253 _0025_
*254 _0026_
*255 _0027_
*256 _0028_
*257 _0029_
*258 _0030_
*259 _0031_
*260 _0032_
*261 _0033_
*262 _0034_
*263 _0035_
*264 _0036_
*265 _0037_
*266 _0038_
*267 _0039_
*268 _0040_
*269 _0041_
*270 _0042_
*271 _0043_
*272 _0044_
*273 _0045_
*274 _0046_
*275 _0047_
*276 _0048_
*277 _0049_
*278 _0050_
*279 _0051_
*280 _0052_
*281 _0053_
*282 _0054_
*283 _0055_
*284 _0056_
*285 _0057_
*286 _0058_
*287 _0059_
*288 _0060_
*289 _0061_
*290 _0062_
*291 _0063_
*292 _0064_
*293 _0065_
*294 _0066_
*295 _0067_
*296 _0068_
*297 _0069_
*298 _0070_
*299 _0071_
*300 _0072_
*301 _0073_
*302 _0074_
*303 _0075_
*304 _0076_
*305 _0077_
*306 _0078_
*307 _0079_
*308 _0080_
*309 _0081_
*310 _0082_
*311 _0083_
*312 _0084_
*313 _0085_
*314 _0086_
*315 _0087_
*316 _0088_
*317 _0089_
*318 _0090_
*319 _0091_
*320 _0092_
*321 _0093_
*322 _0094_
*323 _0095_
*324 _0096_
*325 _0097_
*326 _0098_
*327 _0099_
*328 _0100_
*329 _0101_
*330 _0102_
*331 _0103_
*332 _0104_
*333 _0105_
*334 _0106_
*335 _0107_
*336 _0108_
*337 _0109_
*338 _0110_
*339 _0111_
*340 _0112_
*341 _0113_
*342 _0114_
*343 _0115_
*344 _0116_
*345 _0117_
*346 _0118_
*347 _0119_
*348 _0120_
*349 _0121_
*350 _0122_
*351 _0123_
*352 _0124_
*353 _0125_
*354 _0126_
*355 _0127_
*356 _0128_
*357 _0129_
*358 _0130_
*359 _0131_
*360 _0132_
*361 _0133_
*362 _0134_
*363 _0135_
*364 _0136_
*365 _0137_
*366 _0138_
*367 _0139_
*368 _0140_
*369 _0141_
*370 _0142_
*371 _0143_
*372 _0144_
*373 _0145_
*374 _0146_
*375 _0147_
*376 _0148_
*377 _0149_
*378 _0150_
*379 _0151_
*380 _0152_
*381 _0153_
*382 _0154_
*383 _0155_
*384 _0156_
*385 _0157_
*386 _0158_
*387 _0159_
*388 _0160_
*389 _0161_
*390 _0162_
*391 _0163_
*392 _0164_
*393 _0165_
*394 _0166_
*395 _0167_
*396 _0168_
*397 _0169_
*398 _0170_
*399 _0171_
*400 _0172_
*401 _0173_
*402 _0174_
*403 _0175_
*404 _0176_
*405 _0177_
*406 _0178_
*407 _0179_
*408 _0180_
*409 _0181_
*410 _0182_
*411 _0183_
*412 _0184_
*413 _0185_
*414 _0186_
*415 _0187_
*416 _0188_
*417 _0189_
*418 _0190_
*419 _0191_
*420 _0192_
*421 _0193_
*422 _0194_
*423 _0195_
*424 _0196_
*425 _0197_
*426 _0198_
*427 _0199_
*428 _0200_
*429 _0201_
*430 _0202_
*431 _0203_
*432 _0204_
*433 _0205_
*434 _0206_
*435 _0207_
*436 _0208_
*437 _0209_
*438 _0210_
*439 _0211_
*440 _0212_
*441 _0213_
*442 _0214_
*443 _0215_
*444 _0216_
*445 _0217_
*446 _0218_
*447 _0219_
*448 _0220_
*449 _0221_
*450 _0222_
*451 _0223_
*452 _0224_
*453 _0225_
*454 _0226_
*455 _0227_
*456 _0228_
*457 _0229_
*458 _0230_
*459 _0231_
*460 _0232_
*461 _0233_
*462 _0234_
*463 _0235_
*464 _0236_
*465 _0237_
*466 _0238_
*467 _0239_
*468 _0240_
*469 _0241_
*470 _0242_
*471 _0243_
*472 _0244_
*473 _0245_
*474 _0246_
*475 _0247_
*476 _0248_
*477 _0249_
*478 _0250_
*479 _0251_
*480 _0252_
*481 _0253_
*482 _0254_
*483 _0255_
*484 _0256_
*485 _0257_
*486 _0258_
*487 _0259_
*488 _0260_
*489 _0261_
*490 _0262_
*491 _0263_
*492 _0264_
*493 _0265_
*494 _0266_
*495 _0267_
*496 _0268_
*497 _0269_
*498 _0270_
*499 _0271_
*500 _0272_
*501 _0273_
*502 _0274_
*503 _0275_
*504 _0276_
*505 _0277_
*506 _0278_
*507 _0279_
*508 _0280_
*509 _0281_
*510 _0282_
*511 _0283_
*512 _0284_
*513 _0285_
*514 _0286_
*515 _0287_
*516 _0288_
*517 _0289_
*518 _0290_
*519 _0291_
*520 _0292_
*521 _0293_
*522 _0294_
*523 _0295_
*524 _0296_
*525 _0297_
*526 _0298_
*527 _0299_
*528 _0300_
*529 _0301_
*530 _0302_
*531 _0303_
*532 _0304_
*533 _0305_
*534 _0306_
*535 _0307_
*536 _0308_
*537 _0309_
*538 _0310_
*539 _0311_
*540 _0312_
*541 _0313_
*542 _0314_
*543 _0315_
*544 _0316_
*545 _0317_
*546 _0318_
*547 _0319_
*548 _0320_
*549 _0321_
*550 _0322_
*551 _0323_
*552 _0324_
*553 _0325_
*554 _0326_
*555 _0327_
*556 _0328_
*557 _0329_
*558 _0330_
*559 _0331_
*560 _0332_
*561 _0333_
*562 _0334_
*563 _0335_
*564 _0336_
*565 _0337_
*566 _0338_
*567 _0339_
*568 _0340_
*569 _0341_
*570 _0342_
*571 _0343_
*572 _0344_
*573 _0345_
*574 _0346_
*575 _0347_
*576 _0348_
*577 _0349_
*578 _0350_
*579 _0351_
*580 _0352_
*581 _0353_
*582 _0354_
*583 _0355_
*584 _0356_
*585 _0357_
*586 _0358_
*587 _0359_
*588 _0360_
*589 _0361_
*590 _0362_
*591 _0363_
*592 _0364_
*593 _0365_
*594 _0366_
*595 _0367_
*596 _0368_
*597 _0369_
*598 _0370_
*599 _0371_
*600 _0372_
*601 _0373_
*602 _0374_
*603 _0375_
*604 _0376_
*605 _0377_
*606 _0378_
*607 _0379_
*608 _0380_
*609 _0381_
*610 _0382_
*611 _0383_
*612 _0384_
*613 _0385_
*614 _0386_
*615 _0387_
*616 _0388_
*617 _0389_
*618 _0390_
*619 _0391_
*620 _0392_
*621 _0393_
*622 _0394_
*623 _0395_
*624 _0396_
*625 _0397_
*626 _0398_
*627 _0399_
*628 _0400_
*629 _0401_
*630 _0402_
*631 _0403_
*632 _0404_
*633 _0405_
*634 _0406_
*635 _0407_
*636 _0408_
*637 _0409_
*638 _0410_
*639 _0411_
*640 _0412_
*641 _0413_
*642 _0414_
*643 _0415_
*644 _0416_
*645 _0417_
*646 _0418_
*647 _0419_
*648 _0420_
*649 _0421_
*650 _0422_
*651 _0423_
*652 _0424_
*653 _0425_
*654 _0426_
*655 _0427_
*656 _0428_
*657 _0429_
*658 _0430_
*659 _0431_
*660 _0432_
*661 _0433_
*662 _0434_
*663 _0435_
*664 _0436_
*665 _0437_
*666 _0438_
*667 _0439_
*668 _0440_
*669 _0441_
*670 _0442_
*671 _0443_
*672 _0444_
*673 _0445_
*674 _0446_
*675 _0447_
*676 _0448_
*677 _0449_
*678 _0450_
*679 _0451_
*680 _0452_
*681 _0453_
*682 _0454_
*683 _0455_
*684 _0456_
*685 _0457_
*686 _0458_
*687 _0459_
*688 _0460_
*689 _0461_
*690 _0462_
*691 _0463_
*692 _0464_
*693 _0465_
*694 _0466_
*695 _0467_
*696 _0468_
*697 _0469_
*698 _0470_
*699 _0471_
*700 _0472_
*701 _0473_
*702 _0474_
*703 _0475_
*704 _0476_
*705 _0477_
*706 _0478_
*707 _0479_
*708 _0480_
*709 _0481_
*710 _0482_
*711 _0483_
*712 _0484_
*713 _0485_
*714 _0486_
*715 _0487_
*716 _0488_
*717 _0489_
*718 _0490_
*719 _0491_
*720 _0492_
*721 _0493_
*722 _0494_
*723 _0495_
*724 _0496_
*725 _0497_
*726 _0498_
*727 _0499_
*728 _0500_
*729 _0501_
*730 _0502_
*731 _0503_
*732 _0504_
*733 _0505_
*734 _0506_
*735 _0507_
*736 _0508_
*737 _0509_
*738 _0510_
*739 _0511_
*740 _0512_
*741 _0513_
*742 _0514_
*743 _0515_
*744 _0516_
*745 _0517_
*746 _0518_
*747 _0519_
*748 _0520_
*749 _0521_
*750 _0522_
*751 _0523_
*752 _0524_
*753 _0525_
*754 _0526_
*755 _0527_
*756 _0528_
*757 _0529_
*758 _0530_
*759 _0531_
*760 _0532_
*761 _0533_
*762 _0534_
*763 _0535_
*764 _0536_
*765 _0537_
*766 _0538_
*767 _0539_
*768 _0540_
*769 _0541_
*770 _0542_
*771 _0543_
*772 _0544_
*773 _0545_
*774 _0546_
*775 _0547_
*776 _0548_
*777 _0549_
*778 _0550_
*779 _0551_
*780 _0552_
*781 _0553_
*782 _0554_
*783 _0555_
*784 _0556_
*785 _0557_
*786 _0558_
*787 _0559_
*788 _0560_
*789 _0561_
*790 _0562_
*791 _0563_
*792 _0564_
*793 _0565_
*794 _0566_
*795 _0567_
*796 _0568_
*797 _0569_
*798 _0570_
*799 _0571_
*800 _0572_
*801 _0573_
*802 _0574_
*803 _0575_
*804 _0576_
*805 _0577_
*806 _0578_
*807 _0579_
*808 _0580_
*809 _0581_
*810 _0582_
*811 _0583_
*812 _0584_
*813 _0585_
*814 _0586_
*815 _0587_
*816 _0588_
*817 _0589_
*818 _0590_
*819 _0591_
*820 _0592_
*821 _0593_
*822 _0594_
*823 _0595_
*824 _0596_
*825 _0597_
*826 _0598_
*827 _0599_
*828 _0600_
*829 _0601_
*830 _0602_
*831 _0603_
*832 _0604_
*833 _0605_
*834 _0606_
*835 _0607_
*836 _0608_
*837 _0609_
*838 _0610_
*839 _0611_
*840 _0612_
*841 _0613_
*842 _0614_
*843 _0615_
*844 _0616_
*845 _0617_
*846 _0618_
*847 _0619_
*848 _0620_
*849 _0621_
*850 _0622_
*851 _0623_
*852 _0624_
*853 _0625_
*854 _0626_
*855 _0627_
*856 _0628_
*857 _0629_
*858 _0630_
*859 _0631_
*860 _0632_
*861 _0633_
*862 _0634_
*863 _0635_
*864 _0636_
*865 _0637_
*866 _0638_
*867 _0639_
*868 _0640_
*869 _0641_
*870 _0642_
*871 _0643_
*872 _0644_
*873 _0645_
*874 _0646_
*875 _0647_
*876 _0648_
*877 _0649_
*878 _0650_
*879 _0651_
*880 _0652_
*881 _0653_
*882 _0654_
*883 _0655_
*884 _0656_
*885 _0657_
*886 _0658_
*887 _0659_
*888 _0660_
*889 _0661_
*890 _0662_
*891 _0663_
*892 _0664_
*893 _0665_
*894 _0666_
*895 _0667_
*896 _0668_
*897 _0669_
*898 _0670_
*899 _0671_
*900 _0672_
*901 _0673_
*902 _0674_
*903 _0675_
*904 _0676_
*905 _0677_
*906 _0678_
*907 _0679_
*908 _0680_
*909 _0681_
*910 _0682_
*911 _0683_
*912 _0684_
*913 _0685_
*914 _0686_
*915 _0687_
*916 _0688_
*917 _0689_
*918 _0690_
*919 _0691_
*920 _0692_
*921 _0693_
*922 _0694_
*923 _0695_
*924 _0696_
*925 _0697_
*926 _0698_
*927 _0699_
*928 _0700_
*929 _0701_
*930 _0702_
*931 _0703_
*932 _0704_
*933 _0705_
*934 _0706_
*935 _0707_
*936 _0708_
*937 _0709_
*938 _0710_
*939 _0711_
*940 _0712_
*941 _0713_
*942 _0714_
*943 _0715_
*944 _0716_
*945 _0717_
*946 _0718_
*947 _0719_
*948 _0720_
*949 _0721_
*950 _0722_
*951 _0723_
*952 _0724_
*953 _0725_
*954 _0726_
*955 _0727_
*956 _0728_
*957 _0729_
*958 _0730_
*959 clknet_0_clk
*960 clknet_4_0_0_clk
*961 clknet_4_10_0_clk
*962 clknet_4_11_0_clk
*963 clknet_4_12_0_clk
*964 clknet_4_13_0_clk
*965 clknet_4_14_0_clk
*966 clknet_4_15_0_clk
*967 clknet_4_1_0_clk
*968 clknet_4_2_0_clk
*969 clknet_4_3_0_clk
*970 clknet_4_4_0_clk
*971 clknet_4_5_0_clk
*972 clknet_4_6_0_clk
*973 clknet_4_7_0_clk
*974 clknet_4_8_0_clk
*975 clknet_4_9_0_clk
*976 net1
*977 net10
*978 net100
*979 net101
*980 net102
*981 net103
*982 net104
*983 net105
*984 net106
*985 net107
*986 net108
*987 net109
*988 net11
*989 net110
*990 net111
*991 net112
*992 net113
*993 net114
*994 net115
*995 net116
*996 net117
*997 net118
*998 net119
*999 net120
*1000 net121
*1001 net122
*1002 net123
*1003 net124
*1004 net125
*1005 net126
*1006 net127
*1007 net128
*1008 net129
*1009 net130
*1010 net131
*1011 net132
*1012 net133
*1013 net134
*1014 net135
*1015 net136
*1016 net137
*1017 net138
*1018 net139
*1019 net140
*1020 net141
*1021 net142
*1022 net143
*1023 net144
*1024 net145
*1025 net146
*1026 net147
*1027 net148
*1028 net149
*1029 net150
*1030 net151
*1031 net152
*1032 net153
*1033 net154
*1034 net155
*1035 net156
*1036 net157
*1037 net158
*1038 net159
*1039 net160
*1040 net161
*1041 net162
*1042 net163
*1043 net164
*1044 net165
*1045 net166
*1046 net167
*1047 net168
*1048 net169
*1049 net170
*1050 net171
*1051 net172
*1052 net173
*1053 net174
*1054 net175
*1055 net176
*1056 net177
*1057 net178
*1058 net179
*1059 net180
*1060 net181
*1061 net182
*1062 net183
*1063 net184
*1064 net185
*1065 net186
*1066 net187
*1067 net188
*1068 net189
*1069 net190
*1070 net191
*1071 net192
*1072 net193
*1073 net194
*1074 net195
*1075 net196
*1076 net197
*1077 net198
*1078 net199
*1079 net2
*1080 net23
*1081 net24
*1082 net25
*1083 net26
*1084 net27
*1085 net28
*1086 net29
*1087 net3
*1088 net30
*1089 net31
*1090 net32
*1091 net33
*1092 net34
*1093 net35
*1094 net36
*1095 net37
*1096 net38
*1097 net39
*1098 net4
*1099 net40
*1100 net41
*1101 net42
*1102 net43
*1103 net44
*1104 net45
*1105 net46
*1106 net47
*1107 net48
*1108 net49
*1109 net5
*1110 net50
*1111 net51
*1112 net52
*1113 net53
*1114 net54
*1115 net55
*1116 net56
*1117 net57
*1118 net58
*1119 net59
*1120 net6
*1121 net60
*1122 net61
*1123 net62
*1124 net63
*1125 net64
*1126 net65
*1127 net66
*1128 net67
*1129 net68
*1130 net69
*1131 net7
*1132 net70
*1133 net71
*1134 net72
*1135 net73
*1136 net74
*1137 net75
*1138 net76
*1139 net77
*1140 net78
*1141 net79
*1142 net8
*1143 net80
*1144 net81
*1145 net82
*1146 net83
*1147 net84
*1148 net85
*1149 net86
*1150 net87
*1151 net88
*1152 net89
*1153 net9
*1154 net90
*1155 net91
*1156 net92
*1157 net93
*1158 net94
*1159 net95
*1160 net96
*1161 net97
*1162 net98
*1163 net99
*1164 ANTENNA_1
*1165 FILLER_0_0_107
*1166 FILLER_0_0_111
*1167 FILLER_0_0_113
*1168 FILLER_0_0_133
*1169 FILLER_0_0_139
*1170 FILLER_0_0_141
*1171 FILLER_0_0_15
*1172 FILLER_0_0_160
*1173 FILLER_0_0_165
*1174 FILLER_0_0_185
*1175 FILLER_0_0_190
*1176 FILLER_0_0_197
*1177 FILLER_0_0_222
*1178 FILLER_0_0_225
*1179 FILLER_0_0_237
*1180 FILLER_0_0_249
*1181 FILLER_0_0_253
*1182 FILLER_0_0_265
*1183 FILLER_0_0_27
*1184 FILLER_0_0_277
*1185 FILLER_0_0_281
*1186 FILLER_0_0_29
*1187 FILLER_0_0_293
*1188 FILLER_0_0_3
*1189 FILLER_0_0_305
*1190 FILLER_0_0_309
*1191 FILLER_0_0_321
*1192 FILLER_0_0_333
*1193 FILLER_0_0_41
*1194 FILLER_0_0_53
*1195 FILLER_0_0_57
*1196 FILLER_0_0_69
*1197 FILLER_0_0_81
*1198 FILLER_0_0_85
*1199 FILLER_0_10_127
*1200 FILLER_0_10_139
*1201 FILLER_0_10_141
*1202 FILLER_0_10_15
*1203 FILLER_0_10_158
*1204 FILLER_0_10_162
*1205 FILLER_0_10_169
*1206 FILLER_0_10_181
*1207 FILLER_0_10_194
*1208 FILLER_0_10_206
*1209 FILLER_0_10_251
*1210 FILLER_0_10_266
*1211 FILLER_0_10_27
*1212 FILLER_0_10_276
*1213 FILLER_0_10_29
*1214 FILLER_0_10_3
*1215 FILLER_0_10_307
*1216 FILLER_0_10_328
*1217 FILLER_0_10_334
*1218 FILLER_0_10_43
*1219 FILLER_0_10_53
*1220 FILLER_0_10_65
*1221 FILLER_0_10_83
*1222 FILLER_0_10_92
*1223 FILLER_0_11_110
*1224 FILLER_0_11_113
*1225 FILLER_0_11_119
*1226 FILLER_0_11_15
*1227 FILLER_0_11_158
*1228 FILLER_0_11_176
*1229 FILLER_0_11_185
*1230 FILLER_0_11_203
*1231 FILLER_0_11_223
*1232 FILLER_0_11_23
*1233 FILLER_0_11_231
*1234 FILLER_0_11_240
*1235 FILLER_0_11_252
*1236 FILLER_0_11_261
*1237 FILLER_0_11_273
*1238 FILLER_0_11_279
*1239 FILLER_0_11_281
*1240 FILLER_0_11_295
*1241 FILLER_0_11_3
*1242 FILLER_0_11_313
*1243 FILLER_0_11_43
*1244 FILLER_0_11_55
*1245 FILLER_0_11_57
*1246 FILLER_0_11_65
*1247 FILLER_0_11_71
*1248 FILLER_0_11_80
*1249 FILLER_0_11_86
*1250 FILLER_0_11_94
*1251 FILLER_0_11_98
*1252 FILLER_0_12_108
*1253 FILLER_0_12_121
*1254 FILLER_0_12_138
*1255 FILLER_0_12_144
*1256 FILLER_0_12_15
*1257 FILLER_0_12_156
*1258 FILLER_0_12_171
*1259 FILLER_0_12_183
*1260 FILLER_0_12_188
*1261 FILLER_0_12_213
*1262 FILLER_0_12_217
*1263 FILLER_0_12_250
*1264 FILLER_0_12_27
*1265 FILLER_0_12_29
*1266 FILLER_0_12_3
*1267 FILLER_0_12_303
*1268 FILLER_0_12_307
*1269 FILLER_0_12_328
*1270 FILLER_0_12_334
*1271 FILLER_0_12_39
*1272 FILLER_0_12_81
*1273 FILLER_0_12_85
*1274 FILLER_0_12_89
*1275 FILLER_0_12_97
*1276 FILLER_0_13_102
*1277 FILLER_0_13_110
*1278 FILLER_0_13_113
*1279 FILLER_0_13_117
*1280 FILLER_0_13_125
*1281 FILLER_0_13_15
*1282 FILLER_0_13_169
*1283 FILLER_0_13_186
*1284 FILLER_0_13_190
*1285 FILLER_0_13_197
*1286 FILLER_0_13_201
*1287 FILLER_0_13_218
*1288 FILLER_0_13_231
*1289 FILLER_0_13_249
*1290 FILLER_0_13_267
*1291 FILLER_0_13_3
*1292 FILLER_0_13_319
*1293 FILLER_0_13_334
*1294 FILLER_0_13_43
*1295 FILLER_0_13_55
*1296 FILLER_0_13_57
*1297 FILLER_0_13_69
*1298 FILLER_0_13_75
*1299 FILLER_0_13_90
*1300 FILLER_0_14_109
*1301 FILLER_0_14_113
*1302 FILLER_0_14_122
*1303 FILLER_0_14_138
*1304 FILLER_0_14_147
*1305 FILLER_0_14_15
*1306 FILLER_0_14_164
*1307 FILLER_0_14_180
*1308 FILLER_0_14_214
*1309 FILLER_0_14_226
*1310 FILLER_0_14_250
*1311 FILLER_0_14_258
*1312 FILLER_0_14_266
*1313 FILLER_0_14_27
*1314 FILLER_0_14_270
*1315 FILLER_0_14_29
*1316 FILLER_0_14_297
*1317 FILLER_0_14_3
*1318 FILLER_0_14_317
*1319 FILLER_0_14_41
*1320 FILLER_0_14_70
*1321 FILLER_0_14_85
*1322 FILLER_0_15_120
*1323 FILLER_0_15_124
*1324 FILLER_0_15_146
*1325 FILLER_0_15_15
*1326 FILLER_0_15_167
*1327 FILLER_0_15_183
*1328 FILLER_0_15_223
*1329 FILLER_0_15_225
*1330 FILLER_0_15_233
*1331 FILLER_0_15_244
*1332 FILLER_0_15_279
*1333 FILLER_0_15_3
*1334 FILLER_0_15_302
*1335 FILLER_0_15_319
*1336 FILLER_0_15_331
*1337 FILLER_0_15_34
*1338 FILLER_0_15_51
*1339 FILLER_0_15_55
*1340 FILLER_0_15_72
*1341 FILLER_0_16_103
*1342 FILLER_0_16_11
*1343 FILLER_0_16_133
*1344 FILLER_0_16_139
*1345 FILLER_0_16_157
*1346 FILLER_0_16_184
*1347 FILLER_0_16_195
*1348 FILLER_0_16_197
*1349 FILLER_0_16_224
*1350 FILLER_0_16_237
*1351 FILLER_0_16_244
*1352 FILLER_0_16_251
*1353 FILLER_0_16_253
*1354 FILLER_0_16_285
*1355 FILLER_0_16_29
*1356 FILLER_0_16_3
*1357 FILLER_0_16_307
*1358 FILLER_0_16_317
*1359 FILLER_0_16_48
*1360 FILLER_0_16_52
*1361 FILLER_0_16_77
*1362 FILLER_0_16_85
*1363 FILLER_0_17_102
*1364 FILLER_0_17_137
*1365 FILLER_0_17_164
*1366 FILLER_0_17_169
*1367 FILLER_0_17_179
*1368 FILLER_0_17_183
*1369 FILLER_0_17_209
*1370 FILLER_0_17_217
*1371 FILLER_0_17_235
*1372 FILLER_0_17_270
*1373 FILLER_0_17_278
*1374 FILLER_0_17_287
*1375 FILLER_0_17_298
*1376 FILLER_0_17_3
*1377 FILLER_0_17_310
*1378 FILLER_0_17_316
*1379 FILLER_0_17_320
*1380 FILLER_0_17_329
*1381 FILLER_0_17_57
*1382 FILLER_0_17_65
*1383 FILLER_0_17_75
*1384 FILLER_0_17_85
*1385 FILLER_0_17_89
*1386 FILLER_0_18_108
*1387 FILLER_0_18_163
*1388 FILLER_0_18_19
*1389 FILLER_0_18_193
*1390 FILLER_0_18_205
*1391 FILLER_0_18_213
*1392 FILLER_0_18_228
*1393 FILLER_0_18_240
*1394 FILLER_0_18_248
*1395 FILLER_0_18_283
*1396 FILLER_0_18_29
*1397 FILLER_0_18_300
*1398 FILLER_0_18_334
*1399 FILLER_0_18_35
*1400 FILLER_0_18_60
*1401 FILLER_0_18_85
*1402 FILLER_0_19_146
*1403 FILLER_0_19_164
*1404 FILLER_0_19_198
*1405 FILLER_0_19_205
*1406 FILLER_0_19_211
*1407 FILLER_0_19_22
*1408 FILLER_0_19_220
*1409 FILLER_0_19_241
*1410 FILLER_0_19_261
*1411 FILLER_0_19_277
*1412 FILLER_0_19_3
*1413 FILLER_0_19_309
*1414 FILLER_0_19_34
*1415 FILLER_0_19_75
*1416 FILLER_0_19_83
*1417 FILLER_0_1_113
*1418 FILLER_0_1_122
*1419 FILLER_0_1_134
*1420 FILLER_0_1_147
*1421 FILLER_0_1_15
*1422 FILLER_0_1_166
*1423 FILLER_0_1_177
*1424 FILLER_0_1_210
*1425 FILLER_0_1_214
*1426 FILLER_0_1_223
*1427 FILLER_0_1_241
*1428 FILLER_0_1_253
*1429 FILLER_0_1_265
*1430 FILLER_0_1_27
*1431 FILLER_0_1_277
*1432 FILLER_0_1_281
*1433 FILLER_0_1_293
*1434 FILLER_0_1_3
*1435 FILLER_0_1_305
*1436 FILLER_0_1_317
*1437 FILLER_0_1_329
*1438 FILLER_0_1_39
*1439 FILLER_0_1_50
*1440 FILLER_0_1_65
*1441 FILLER_0_1_73
*1442 FILLER_0_1_92
*1443 FILLER_0_20_106
*1444 FILLER_0_20_121
*1445 FILLER_0_20_141
*1446 FILLER_0_20_147
*1447 FILLER_0_20_15
*1448 FILLER_0_20_164
*1449 FILLER_0_20_189
*1450 FILLER_0_20_197
*1451 FILLER_0_20_215
*1452 FILLER_0_20_232
*1453 FILLER_0_20_250
*1454 FILLER_0_20_253
*1455 FILLER_0_20_26
*1456 FILLER_0_20_274
*1457 FILLER_0_20_286
*1458 FILLER_0_20_298
*1459 FILLER_0_20_3
*1460 FILLER_0_20_307
*1461 FILLER_0_20_321
*1462 FILLER_0_20_334
*1463 FILLER_0_20_37
*1464 FILLER_0_20_61
*1465 FILLER_0_20_85
*1466 FILLER_0_20_89
*1467 FILLER_0_21_108
*1468 FILLER_0_21_113
*1469 FILLER_0_21_125
*1470 FILLER_0_21_129
*1471 FILLER_0_21_159
*1472 FILLER_0_21_169
*1473 FILLER_0_21_19
*1474 FILLER_0_21_197
*1475 FILLER_0_21_203
*1476 FILLER_0_21_223
*1477 FILLER_0_21_225
*1478 FILLER_0_21_256
*1479 FILLER_0_21_264
*1480 FILLER_0_21_276
*1481 FILLER_0_21_37
*1482 FILLER_0_21_52
*1483 FILLER_0_21_57
*1484 FILLER_0_21_66
*1485 FILLER_0_21_91
*1486 FILLER_0_22_101
*1487 FILLER_0_22_11
*1488 FILLER_0_22_135
*1489 FILLER_0_22_139
*1490 FILLER_0_22_141
*1491 FILLER_0_22_152
*1492 FILLER_0_22_161
*1493 FILLER_0_22_165
*1494 FILLER_0_22_211
*1495 FILLER_0_22_245
*1496 FILLER_0_22_251
*1497 FILLER_0_22_253
*1498 FILLER_0_22_262
*1499 FILLER_0_22_282
*1500 FILLER_0_22_292
*1501 FILLER_0_22_3
*1502 FILLER_0_22_304
*1503 FILLER_0_22_309
*1504 FILLER_0_22_317
*1505 FILLER_0_22_53
*1506 FILLER_0_22_70
*1507 FILLER_0_22_81
*1508 FILLER_0_23_113
*1509 FILLER_0_23_143
*1510 FILLER_0_23_174
*1511 FILLER_0_23_19
*1512 FILLER_0_23_220
*1513 FILLER_0_23_241
*1514 FILLER_0_23_259
*1515 FILLER_0_23_267
*1516 FILLER_0_23_274
*1517 FILLER_0_23_291
*1518 FILLER_0_23_328
*1519 FILLER_0_23_334
*1520 FILLER_0_23_34
*1521 FILLER_0_23_53
*1522 FILLER_0_23_57
*1523 FILLER_0_24_100
*1524 FILLER_0_24_141
*1525 FILLER_0_24_15
*1526 FILLER_0_24_153
*1527 FILLER_0_24_186
*1528 FILLER_0_24_194
*1529 FILLER_0_24_218
*1530 FILLER_0_24_222
*1531 FILLER_0_24_26
*1532 FILLER_0_24_296
*1533 FILLER_0_24_3
*1534 FILLER_0_24_316
*1535 FILLER_0_24_327
*1536 FILLER_0_24_37
*1537 FILLER_0_24_45
*1538 FILLER_0_24_58
*1539 FILLER_0_24_70
*1540 FILLER_0_24_80
*1541 FILLER_0_24_89
*1542 FILLER_0_25_109
*1543 FILLER_0_25_136
*1544 FILLER_0_25_156
*1545 FILLER_0_25_167
*1546 FILLER_0_25_184
*1547 FILLER_0_25_19
*1548 FILLER_0_25_199
*1549 FILLER_0_25_203
*1550 FILLER_0_25_220
*1551 FILLER_0_25_232
*1552 FILLER_0_25_241
*1553 FILLER_0_25_276
*1554 FILLER_0_25_281
*1555 FILLER_0_25_293
*1556 FILLER_0_25_30
*1557 FILLER_0_25_302
*1558 FILLER_0_25_311
*1559 FILLER_0_25_55
*1560 FILLER_0_25_57
*1561 FILLER_0_25_76
*1562 FILLER_0_25_90
*1563 FILLER_0_26_11
*1564 FILLER_0_26_139
*1565 FILLER_0_26_149
*1566 FILLER_0_26_195
*1567 FILLER_0_26_202
*1568 FILLER_0_26_235
*1569 FILLER_0_26_27
*1570 FILLER_0_26_29
*1571 FILLER_0_26_3
*1572 FILLER_0_26_306
*1573 FILLER_0_26_318
*1574 FILLER_0_26_323
*1575 FILLER_0_26_37
*1576 FILLER_0_26_62
*1577 FILLER_0_26_85
*1578 FILLER_0_27_101
*1579 FILLER_0_27_113
*1580 FILLER_0_27_162
*1581 FILLER_0_27_177
*1582 FILLER_0_27_205
*1583 FILLER_0_27_223
*1584 FILLER_0_27_225
*1585 FILLER_0_27_250
*1586 FILLER_0_27_258
*1587 FILLER_0_27_276
*1588 FILLER_0_27_281
*1589 FILLER_0_27_3
*1590 FILLER_0_27_308
*1591 FILLER_0_27_317
*1592 FILLER_0_27_92
*1593 FILLER_0_28_118
*1594 FILLER_0_28_137
*1595 FILLER_0_28_162
*1596 FILLER_0_28_19
*1597 FILLER_0_28_190
*1598 FILLER_0_28_202
*1599 FILLER_0_28_251
*1600 FILLER_0_28_305
*1601 FILLER_0_28_327
*1602 FILLER_0_28_52
*1603 FILLER_0_28_89
*1604 FILLER_0_29_106
*1605 FILLER_0_29_113
*1606 FILLER_0_29_122
*1607 FILLER_0_29_148
*1608 FILLER_0_29_174
*1609 FILLER_0_29_183
*1610 FILLER_0_29_194
*1611 FILLER_0_29_202
*1612 FILLER_0_29_222
*1613 FILLER_0_29_250
*1614 FILLER_0_29_279
*1615 FILLER_0_29_292
*1616 FILLER_0_29_3
*1617 FILLER_0_29_303
*1618 FILLER_0_29_31
*1619 FILLER_0_29_318
*1620 FILLER_0_29_55
*1621 FILLER_0_2_107
*1622 FILLER_0_2_111
*1623 FILLER_0_2_137
*1624 FILLER_0_2_141
*1625 FILLER_0_2_145
*1626 FILLER_0_2_15
*1627 FILLER_0_2_159
*1628 FILLER_0_2_195
*1629 FILLER_0_2_212
*1630 FILLER_0_2_237
*1631 FILLER_0_2_242
*1632 FILLER_0_2_251
*1633 FILLER_0_2_253
*1634 FILLER_0_2_265
*1635 FILLER_0_2_27
*1636 FILLER_0_2_277
*1637 FILLER_0_2_289
*1638 FILLER_0_2_29
*1639 FILLER_0_2_3
*1640 FILLER_0_2_301
*1641 FILLER_0_2_307
*1642 FILLER_0_2_309
*1643 FILLER_0_2_321
*1644 FILLER_0_2_333
*1645 FILLER_0_2_41
*1646 FILLER_0_2_66
*1647 FILLER_0_2_78
*1648 FILLER_0_2_85
*1649 FILLER_0_2_93
*1650 FILLER_0_30_112
*1651 FILLER_0_30_138
*1652 FILLER_0_30_141
*1653 FILLER_0_30_15
*1654 FILLER_0_30_164
*1655 FILLER_0_30_184
*1656 FILLER_0_30_195
*1657 FILLER_0_30_21
*1658 FILLER_0_30_218
*1659 FILLER_0_30_242
*1660 FILLER_0_30_251
*1661 FILLER_0_30_27
*1662 FILLER_0_30_283
*1663 FILLER_0_30_3
*1664 FILLER_0_30_301
*1665 FILLER_0_30_326
*1666 FILLER_0_30_37
*1667 FILLER_0_30_49
*1668 FILLER_0_30_66
*1669 FILLER_0_30_82
*1670 FILLER_0_31_100
*1671 FILLER_0_31_11
*1672 FILLER_0_31_110
*1673 FILLER_0_31_121
*1674 FILLER_0_31_127
*1675 FILLER_0_31_136
*1676 FILLER_0_31_162
*1677 FILLER_0_31_169
*1678 FILLER_0_31_177
*1679 FILLER_0_31_185
*1680 FILLER_0_31_193
*1681 FILLER_0_31_204