*SPEF "ieee 1481-1999"
*DESIGN "tt_um_ram"
*DATE "11:11:11 Fri 11 11, 1111"
*VENDOR "OpenRCX"
*PROGRAM "Parallel Extraction"
*VERSION "1.0"
*DESIGN_FLOW "NAME_SCOPE LOCAL" "PIN_CAP NONE"
*DIVIDER /
*DELIMITER :
*BUS_DELIMITER []
*T_UNIT 1 NS
*C_UNIT 1 PF
*R_UNIT 1 OHM
*L_UNIT 1 HENRY

*NAME_MAP
*3 clk
*4 ena
*5 rst_n
*6 ui_in[0]
*7 ui_in[1]
*8 ui_in[2]
*9 ui_in[3]
*10 ui_in[4]
*11 ui_in[5]
*12 ui_in[6]
*13 ui_in[7]
*14 uio_in[0]
*15 uio_in[1]
*16 uio_in[2]
*17 uio_in[3]
*18 uio_in[4]
*19 uio_in[5]
*20 uio_in[6]
*21 uio_in[7]
*22 net10
*23 net23
*24 net24
*25 net25
*26 net26
*27 net27
*28 net28
*29 net29
*30 net11
*31 net12
*32 net13
*33 net14
*34 net15
*35 net16
*36 net17
*37 net18
*38 uo_out[0]
*39 uo_out[1]
*40 uo_out[2]
*41 uo_out[3]
*42 net19
*43 net20
*44 net21
*45 net22
*46 _000_
*47 _001_
*48 _002_
*49 _003_
*50 _004_
*51 _005_
*52 _006_
*53 _007_
*54 _008_
*55 _009_
*56 _010_
*57 _011_
*58 _012_
*59 _013_
*60 _014_
*61 _015_
*62 _016_
*63 _017_
*64 _018_
*65 _019_
*66 _020_
*67 _021_
*68 _022_
*69 _023_
*70 _024_
*71 _025_
*72 _026_
*73 _027_
*74 _028_
*75 _029_
*76 _030_
*77 _031_
*78 _032_
*79 _033_
*80 _034_
*81 _035_
*82 _036_
*83 _037_
*84 _038_
*85 _039_
*86 _040_
*87 _041_
*88 _042_
*89 _043_
*90 _044_
*91 _045_
*92 _046_
*93 _047_
*94 _048_
*95 _049_
*96 _050_
*97 _051_
*98 _052_
*99 _053_
*100 _054_
*101 _055_
*102 _056_
*103 _057_
*104 _058_
*105 _059_
*106 _060_
*107 _061_
*108 _062_
*109 _063_
*110 _064_
*111 _065_
*112 _066_
*113 _067_
*114 _068_
*115 _069_
*116 _070_
*117 _071_
*118 _072_
*119 _073_
*120 _074_
*121 _075_
*122 _076_
*123 _077_
*124 _078_
*125 _079_
*126 _080_
*127 _081_
*128 _082_
*129 _083_
*130 _084_
*131 _085_
*132 _086_
*133 _087_
*134 _088_
*135 _089_
*136 _090_
*137 _091_
*138 _092_
*139 _093_
*140 _094_
*141 _095_
*142 _096_
*143 _097_
*144 _098_
*145 _099_
*146 _100_
*147 _101_
*148 _102_
*149 _103_
*150 _104_
*151 _105_
*152 _106_
*153 _107_
*154 _108_
*155 _109_
*156 _110_
*157 _111_
*158 _112_
*159 _113_
*160 _114_
*161 _115_
*162 _116_
*163 _117_
*164 _118_
*165 _119_
*166 _120_
*167 _121_
*168 _122_
*169 _123_
*170 _124_
*171 _125_
*172 _126_
*173 _127_
*174 _128_
*175 _129_
*176 _130_
*177 _131_
*178 _132_
*179 _133_
*180 _134_
*181 _135_
*182 _136_
*183 _137_
*184 _138_
*185 _139_
*186 _140_
*187 _141_
*188 _142_
*189 _143_
*190 _144_
*191 _145_
*192 _146_
*193 _147_
*194 _148_
*195 _149_
*196 _150_
*197 _151_
*198 _152_
*199 _153_
*200 _154_
*201 _155_
*202 _156_
*203 _157_
*204 _158_
*205 _159_
*206 _160_
*207 _161_
*208 _162_
*209 _163_
*210 _164_
*211 _165_
*212 _166_
*213 _167_
*214 _168_
*215 _169_
*216 _170_
*217 _171_
*218 _172_
*219 _173_
*220 _174_
*221 _175_
*222 _176_
*223 _177_
*224 _178_
*225 _179_
*226 _180_
*227 _181_
*228 _182_
*229 _183_
*230 _184_
*231 _185_
*232 _186_
*233 _187_
*234 _188_
*235 _189_
*236 _190_
*237 _191_
*238 _192_
*239 clknet_0_clk
*240 clknet_3_0__leaf_clk
*241 clknet_3_1__leaf_clk
*242 clknet_3_2__leaf_clk
*243 clknet_3_3__leaf_clk
*244 clknet_3_4__leaf_clk
*245 clknet_3_5__leaf_clk
*246 clknet_3_6__leaf_clk
*247 clknet_3_7__leaf_clk
*248 net1
*249 net2
*250 net3
*251 net30
*252 net31
*253 net32
*254 net33
*255 net34
*256 net35
*257 net36
*258 net37
*259 net38
*260 net39
*261 net4
*262 net40
*263 net41
*264 net42
*265 net43
*266 net44
*267 net45
*268 net46
*269 net47
*270 net48
*271 net49
*272 net5
*273 net50
*274 net51
*275 net52
*276 net53
*277 net54
*278 net55
*279 net56
*280 net57
*281 net58
*282 net59
*283 net6
*284 net60
*285 net61
*286 net62
*287 net63
*288 net64
*289 net65
*290 net66
*291 net67
*292 net68
*293 net69
*294 net7
*295 net70
*296 net71
*297 net72
*298 net73
*299 net74
*300 net75
*301 net76
*302 net77
*303 net78
*304 net79
*305 net8
*306 net80
*307 net81
*308 net82
*309 net83
*310 net84
*311 net85
*312 net86
*313 net87
*314 net88
*315 net89
*316 net9
*317 net90
*318 net91
*319 net92
*320 net93
*321 r1\.mem\[0\]\[0\]
*322 r1\.mem\[0\]\[1\]
*323 r1\.mem\[0\]\[2\]
*324 r1\.mem\[0\]\[3\]
*325 r1\.mem\[10\]\[0\]
*326 r1\.mem\[10\]\[1\]
*327 r1\.mem\[10\]\[2\]
*328 r1\.mem\[10\]\[3\]
*329 r1\.mem\[11\]\[0\]
*330 r1\.mem\[11\]\[1\]
*331 r1\.mem\[11\]\[2\]
*332 r1\.mem\[11\]\[3\]
*333 r1\.mem\[12\]\[0\]
*334 r1\.mem\[12\]\[1\]
*335 r1\.mem\[12\]\[2\]
*336 r1\.mem\[12\]\[3\]
*337 r1\.mem\[13\]\[0\]
*338 r1\.mem\[13\]\[1\]
*339 r1\.mem\[13\]\[2\]
*340 r1\.mem\[13\]\[3\]
*341 r1\.mem\[14\]\[0\]
*342 r1\.mem\[14\]\[1\]
*343 r1\.mem\[14\]\[2\]
*344 r1\.mem\[14\]\[3\]
*345 r1\.mem\[15\]\[0\]
*346 r1\.mem\[15\]\[1\]
*347 r1\.mem\[15\]\[2\]
*348 r1\.mem\[15\]\[3\]
*349 r1\.mem\[1\]\[0\]
*350 r1\.mem\[1\]\[1\]
*351 r1\.mem\[1\]\[2\]
*352 r1\.mem\[1\]\[3\]
*353 r1\.mem\[2\]\[0\]
*354 r1\.mem\[2\]\[1\]
*355 r1\.mem\[2\]\[2\]
*356 r1\.mem\[2\]\[3\]
*357 r1\.mem\[3\]\[0\]
*358 r1\.mem\[3\]\[1\]
*359 r1\.mem\[3\]\[2\]
*360 r1\.mem\[3\]\[3\]
*361 r1\.mem\[4\]\[0\]
*362 r1\.mem\[4\]\[1\]
*363 r1\.mem\[4\]\[2\]
*364 r1\.mem\[4\]\[3\]
*365 r1\.mem\[5\]\[0\]
*366 r1\.mem\[5\]\[1\]
*367 r1\.mem\[5\]\[2\]
*368 r1\.mem\[5\]\[3\]
*369 r1\.mem\[6\]\[0\]
*370 r1\.mem\[6\]\[1\]
*371 r1\.mem\[6\]\[2\]
*372 r1\.mem\[6\]\[3\]
*373 r1\.mem\[7\]\[0\]
*374 r1\.mem\[7\]\[1\]
*375 r1\.mem\[7\]\[2\]
*376 r1\.mem\[7\]\[3\]
*377 r1\.mem\[8\]\[0\]
*378 r1\.mem\[8\]\[1\]
*379 r1\.mem\[8\]\[2\]
*380 r1\.mem\[8\]\[3\]
*381 r1\.mem\[9\]\[0\]
*382 r1\.mem\[9\]\[1\]
*383 r1\.mem\[9\]\[2\]
*384 r1\.mem\[9\]\[3\]
*385 FILLER_0_0_109
*386 FILLER_0_0_113
*387 FILLER_0_0_125
*388 FILLER_0_0_137
*389 FILLER_0_0_141
*390 FILLER_0_0_15
*391 FILLER_0_0_153
*392 FILLER_0_0_165
*393 FILLER_0_0_169
*394 FILLER_0_0_181
*395 FILLER_0_0_193
*396 FILLER_0_0_197
*397 FILLER_0_0_209
*398 FILLER_0_0_221
*399 FILLER_0_0_225
*400 FILLER_0_0_237
*401 FILLER_0_0_249
*402 FILLER_0_0_253
*403 FILLER_0_0_265
*404 FILLER_0_0_27
*405 FILLER_0_0_277
*406 FILLER_0_0_281
*407 FILLER_0_0_29
*408 FILLER_0_0_293
*409 FILLER_0_0_3
*410 FILLER_0_0_305
*411 FILLER_0_0_309
*412 FILLER_0_0_321
*413 FILLER_0_0_333
*414 FILLER_0_0_41
*415 FILLER_0_0_53
*416 FILLER_0_0_57
*417 FILLER_0_0_69
*418 FILLER_0_0_81
*419 FILLER_0_0_85
*420 FILLER_0_0_97
*421 FILLER_0_10_109
*422 FILLER_0_10_121
*423 FILLER_0_10_133
*424 FILLER_0_10_139
*425 FILLER_0_10_141
*426 FILLER_0_10_15
*427 FILLER_0_10_153
*428 FILLER_0_10_165
*429 FILLER_0_10_177
*430 FILLER_0_10_189
*431 FILLER_0_10_195
*432 FILLER_0_10_197
*433 FILLER_0_10_209
*434 FILLER_0_10_221
*435 FILLER_0_10_233
*436 FILLER_0_10_245
*437 FILLER_0_10_251
*438 FILLER_0_10_253
*439 FILLER_0_10_265
*440 FILLER_0_10_27
*441 FILLER_0_10_277
*442 FILLER_0_10_289
*443 FILLER_0_10_29
*444 FILLER_0_10_3
*445 FILLER_0_10_301
*446 FILLER_0_10_307
*447 FILLER_0_10_309
*448 FILLER_0_10_321
*449 FILLER_0_10_333
*450 FILLER_0_10_41
*451 FILLER_0_10_53
*452 FILLER_0_10_65
*453 FILLER_0_10_77
*454 FILLER_0_10_83
*455 FILLER_0_10_85
*456 FILLER_0_10_97
*457 FILLER_0_11_105
*458 FILLER_0_11_111
*459 FILLER_0_11_113
*460 FILLER_0_11_125
*461 FILLER_0_11_137
*462 FILLER_0_11_149
*463 FILLER_0_11_15
*464 FILLER_0_11_161
*465 FILLER_0_11_167
*466 FILLER_0_11_169
*467 FILLER_0_11_181
*468 FILLER_0_11_193
*469 FILLER_0_11_205
*470 FILLER_0_11_217
*471 FILLER_0_11_223
*472 FILLER_0_11_225
*473 FILLER_0_11_237
*474 FILLER_0_11_249
*475 FILLER_0_11_261
*476 FILLER_0_11_27
*477 FILLER_0_11_273
*478 FILLER_0_11_279
*479 FILLER_0_11_281
*480 FILLER_0_11_293
*481 FILLER_0_11_3
*482 FILLER_0_11_305
*483 FILLER_0_11_317
*484 FILLER_0_11_329
*485 FILLER_0_11_39
*486 FILLER_0_11_51
*487 FILLER_0_11_55
*488 FILLER_0_11_57
*489 FILLER_0_11_69
*490 FILLER_0_11_81
*491 FILLER_0_11_93
*492 FILLER_0_12_109
*493 FILLER_0_12_121
*494 FILLER_0_12_133
*495 FILLER_0_12_139
*496 FILLER_0_12_141
*497 FILLER_0_12_15
*498 FILLER_0_12_153
*499 FILLER_0_12_165
*500 FILLER_0_12_177
*501 FILLER_0_12_189
*502 FILLER_0_12_195
*503 FILLER_0_12_197
*504 FILLER_0_12_209
*505 FILLER_0_12_221
*506 FILLER_0_12_233
*507 FILLER_0_12_245
*508 FILLER_0_12_251
*509 FILLER_0_12_253
*510 FILLER_0_12_265
*511 FILLER_0_12_27
*512 FILLER_0_12_277
*513 FILLER_0_12_289
*514 FILLER_0_12_29
*515 FILLER_0_12_3
*516 FILLER_0_12_301
*517 FILLER_0_12_307
*518 FILLER_0_12_309
*519 FILLER_0_12_321
*520 FILLER_0_12_333
*521 FILLER_0_12_41
*522 FILLER_0_12_53
*523 FILLER_0_12_65
*524 FILLER_0_12_77
*525 FILLER_0_12_83
*526 FILLER_0_12_85
*527 FILLER_0_12_97
*528 FILLER_0_13_105
*529 FILLER_0_13_111
*530 FILLER_0_13_113
*531 FILLER_0_13_125
*532 FILLER_0_13_137
*533 FILLER_0_13_149
*534 FILLER_0_13_15
*535 FILLER_0_13_161
*536 FILLER_0_13_167
*537 FILLER_0_13_169
*538 FILLER_0_13_181
*539 FILLER_0_13_193
*540 FILLER_0_13_205
*541 FILLER_0_13_217
*542 FILLER_0_13_223
*543 FILLER_0_13_225
*544 FILLER_0_13_237
*545 FILLER_0_13_249
*546 FILLER_0_13_261
*547 FILLER_0_13_27
*548 FILLER_0_13_273
*549 FILLER_0_13_279
*550 FILLER_0_13_281
*551 FILLER_0_13_293
*552 FILLER_0_13_3
*553 FILLER_0_13_305
*554 FILLER_0_13_317
*555 FILLER_0_13_329
*556 FILLER_0_13_39
*557 FILLER_0_13_51
*558 FILLER_0_13_55
*559 FILLER_0_13_57
*560 FILLER_0_13_69
*561 FILLER_0_13_81
*562 FILLER_0_13_93
*563 FILLER_0_14_109
*564 FILLER_0_14_121
*565 FILLER_0_14_133
*566 FILLER_0_14_139
*567 FILLER_0_14_141
*568 FILLER_0_14_15
*569 FILLER_0_14_153
*570 FILLER_0_14_165
*571 FILLER_0_14_177
*572 FILLER_0_14_189
*573 FILLER_0_14_195
*574 FILLER_0_14_197
*575 FILLER_0_14_209
*576 FILLER_0_14_221
*577 FILLER_0_14_233
*578 FILLER_0_14_245
*579 FILLER_0_14_251
*580 FILLER_0_14_253
*581 FILLER_0_14_265
*582 FILLER_0_14_27
*583 FILLER_0_14_277
*584 FILLER_0_14_289
*585 FILLER_0_14_29
*586 FILLER_0_14_3
*587 FILLER_0_14_301
*588 FILLER_0_14_307
*589 FILLER_0_14_309
*590 FILLER_0_14_321
*591 FILLER_0_14_333
*592 FILLER_0_14_41
*593 FILLER_0_14_53
*594 FILLER_0_14_65
*595 FILLER_0_14_77
*596 FILLER_0_14_83
*597 FILLER_0_14_85
*598 FILLER_0_14_97
*599 FILLER_0_15_105
*600 FILLER_0_15_111
*601 FILLER_0_15_113
*602 FILLER_0_15_125
*603 FILLER_0_15_137
*604 FILLER_0_15_149
*605 FILLER_0_15_15
*606 FILLER_0_15_161
*607 FILLER_0_15_167
*608 FILLER_0_15_169
*609 FILLER_0_15_181
*610 FILLER_0_15_193
*611 FILLER_0_15_205
*612 FILLER_0_15_217
*613 FILLER_0_15_223
*614 FILLER_0_15_225
*615 FILLER_0_15_237
*616 FILLER_0_15_249
*617 FILLER_0_15_261
*618 FILLER_0_15_27
*619 FILLER_0_15_273
*620 FILLER_0_15_279
*621 FILLER_0_15_281
*622 FILLER_0_15_293
*623 FILLER_0_15_3
*624 FILLER_0_15_305
*625 FILLER_0_15_317
*626 FILLER_0_15_329
*627 FILLER_0_15_39
*628 FILLER_0_15_51
*629 FILLER_0_15_55
*630 FILLER_0_15_57
*631 FILLER_0_15_69
*632 FILLER_0_15_81
*633 FILLER_0_15_93
*634 FILLER_0_16_109
*635 FILLER_0_16_121
*636 FILLER_0_16_133
*637 FILLER_0_16_139
*638 FILLER_0_16_141
*639 FILLER_0_16_15
*640 FILLER_0_16_153
*641 FILLER_0_16_165
*642 FILLER_0_16_177
*643 FILLER_0_16_189
*644 FILLER_0_16_195
*645 FILLER_0_16_197
*646 FILLER_0_16_209
*647 FILLER_0_16_221
*648 FILLER_0_16_233
*649 FILLER_0_16_245
*650 FILLER_0_16_251
*651 FILLER_0_16_253
*652 FILLER_0_16_265
*653 FILLER_0_16_27
*654 FILLER_0_16_277
*655 FILLER_0_16_289
*656 FILLER_0_16_29
*657 FILLER_0_16_3
*658 FILLER_0_16_301
*659 FILLER_0_16_307
*660 FILLER_0_16_309
*661 FILLER_0_16_321
*662 FILLER_0_16_333
*663 FILLER_0_16_41
*664 FILLER_0_16_53
*665 FILLER_0_16_65
*666 FILLER_0_16_77
*667 FILLER_0_16_83
*668 FILLER_0_16_85
*669 FILLER_0_16_97
*670 FILLER_0_17_105
*671 FILLER_0_17_111
*672 FILLER_0_17_113
*673 FILLER_0_17_125
*674 FILLER_0_17_137
*675 FILLER_0_17_149
*676 FILLER_0_17_15
*677 FILLER_0_17_161
*678 FILLER_0_17_167
*679 FILLER_0_17_169
*680 FILLER_0_17_181
*681 FILLER_0_17_193
*682 FILLER_0_17_205
*683 FILLER_0_17_217
*684 FILLER_0_17_223
*685 FILLER_0_17_225
*686 FILLER_0_17_237
*687 FILLER_0_17_249
*688 FILLER_0_17_261
*689 FILLER_0_17_27
*690 FILLER_0_17_273
*691 FILLER_0_17_279
*692 FILLER_0_17_281
*693 FILLER_0_17_293
*694 FILLER_0_17_3
*695 FILLER_0_17_305
*696 FILLER_0_17_317
*697 FILLER_0_17_329
*698 FILLER_0_17_39
*699 FILLER_0_17_51
*700 FILLER_0_17_55
*701 FILLER_0_17_57
*702 FILLER_0_17_69
*703 FILLER_0_17_81
*704 FILLER_0_17_93
*705 FILLER_0_18_109
*706 FILLER_0_18_121
*707 FILLER_0_18_133
*708 FILLER_0_18_139
*709 FILLER_0_18_141
*710 FILLER_0_18_15
*711 FILLER_0_18_153
*712 FILLER_0_18_165
*713 FILLER_0_18_177
*714 FILLER_0_18_189
*715 FILLER_0_18_195
*716 FILLER_0_18_197
*717 FILLER_0_18_209
*718 FILLER_0_18_221
*719 FILLER_0_18_233
*720 FILLER_0_18_245
*721 FILLER_0_18_251
*722 FILLER_0_18_253
*723 FILLER_0_18_265
*724 FILLER_0_18_27
*725 FILLER_0_18_277
*726 FILLER_0_18_289
*727 FILLER_0_18_29
*728 FILLER_0_18_3
*729 FILLER_0_18_301
*730 FILLER_0_18_307
*731 FILLER_0_18_309
*732 FILLER_0_18_321
*733 FILLER_0_18_333
*734 FILLER_0_18_41
*735 FILLER_0_18_53
*736 FILLER_0_18_65
*737 FILLER_0_18_77
*738 FILLER_0_18_83
*739 FILLER_0_18_85
*740 FILLER_0_18_97
*741 FILLER_0_19_105
*742 FILLER_0_19_111
*743 FILLER_0_19_113
*744 FILLER_0_19_125
*745 FILLER_0_19_137
*746 FILLER_0_19_149
*747 FILLER_0_19_15
*748 FILLER_0_19_161
*749 FILLER_0_19_167
*750 FILLER_0_19_169
*751 FILLER_0_19_181
*752 FILLER_0_19_193
*753 FILLER_0_19_205
*754 FILLER_0_19_217
*755 FILLER_0_19_223
*756 FILLER_0_19_225
*757 FILLER_0_19_237
*758 FILLER_0_19_249
*759 FILLER_0_19_261
*760 FILLER_0_19_27
*761 FILLER_0_19_273
*762 FILLER_0_19_279
*763 FILLER_0_19_281
*764 FILLER_0_19_293
*765 FILLER_0_19_3
*766 FILLER_0_19_305
*767 FILLER_0_19_317
*768 FILLER_0_19_329
*769 FILLER_0_19_39
*770 FILLER_0_19_51
*771 FILLER_0_19_55
*772 FILLER_0_19_57
*773 FILLER_0_19_69
*774 FILLER_0_19_81
*775 FILLER_0_19_93
*776 FILLER_0_1_105
*777 FILLER_0_1_111
*778 FILLER_0_1_113
*779 FILLER_0_1_125
*780 FILLER_0_1_137
*781 FILLER_0_1_149
*782 FILLER_0_1_15
*783 FILLER_0_1_161
*784 FILLER_0_1_167
*785 FILLER_0_1_169
*786 FILLER_0_1_181
*787 FILLER_0_1_193
*788 FILLER_0_1_205
*789 FILLER_0_1_217
*790 FILLER_0_1_223
*791 FILLER_0_1_225
*792 FILLER_0_1_237
*793 FILLER_0_1_249
*794 FILLER_0_1_261
*795 FILLER_0_1_27
*796 FILLER_0_1_273
*797 FILLER_0_1_279
*798 FILLER_0_1_281
*799 FILLER_0_1_293
*800 FILLER_0_1_3
*801 FILLER_0_1_305
*802 FILLER_0_1_317
*803 FILLER_0_1_329
*804 FILLER_0_1_39
*805 FILLER_0_1_51
*806 FILLER_0_1_55
*807 FILLER_0_1_57
*808 FILLER_0_1_69
*809 FILLER_0_1_81
*810 FILLER_0_1_93
*811 FILLER_0_20_109
*812 FILLER_0_20_121
*813 FILLER_0_20_133
*814 FILLER_0_20_139
*815 FILLER_0_20_141
*816 FILLER_0_20_15
*817 FILLER_0_20_153
*818 FILLER_0_20_165
*819 FILLER_0_20_177
*820 FILLER_0_20_189
*821 FILLER_0_20_195
*822 FILLER_0_20_197
*823 FILLER_0_20_209
*824 FILLER_0_20_221
*825 FILLER_0_20_233
*826 FILLER_0_20_245
*827 FILLER_0_20_251
*828 FILLER_0_20_253
*829 FILLER_0_20_265
*830 FILLER_0_20_27
*831 FILLER_0_20_277
*832 FILLER_0_20_289
*833 FILLER_0_20_29
*834 FILLER_0_20_3
*835 FILLER_0_20_301
*836 FILLER_0_20_307
*837 FILLER_0_20_309
*838 FILLER_0_20_321
*839 FILLER_0_20_333
*840 FILLER_0_20_41
*841 FILLER_0_20_53
*842 FILLER_0_20_65
*843 FILLER_0_20_77
*844 FILLER_0_20_83
*845 FILLER_0_20_85
*846 FILLER_0_20_97
*847 FILLER_0_21_105
*848 FILLER_0_21_111
*849 FILLER_0_21_113
*850 FILLER_0_21_125
*851 FILLER_0_21_137
*852 FILLER_0_21_149
*853 FILLER_0_21_15
*854 FILLER_0_21_161
*855 FILLER_0_21_167
*856 FILLER_0_21_169
*857 FILLER_0_21_181
*858 FILLER_0_21_193
*859 FILLER_0_21_205
*860 FILLER_0_21_217
*861 FILLER_0_21_223
*862 FILLER_0_21_225
*863 FILLER_0_21_237
*864 FILLER_0_21_249
*865 FILLER_0_21_261
*866 FILLER_0_21_27
*867 FILLER_0_21_273
*868 FILLER_0_21_279
*869 FILLER_0_21_281
*870 FILLER_0_21_293
*871 FILLER_0_21_3
*872 FILLER_0_21_305
*873 FILLER_0_21_317
*874 FILLER_0_21_329
*875 FILLER_0_21_39
*876 FILLER_0_21_51
*877 FILLER_0_21_55
*878 FILLER_0_21_57
*879 FILLER_0_21_69
*880 FILLER_0_21_81
*881 FILLER_0_21_93
*882 FILLER_0_22_109
*883 FILLER_0_22_121
*884 FILLER_0_22_133
*885 FILLER_0_22_139
*886 FILLER_0_22_141
*887 FILLER_0_22_15
*888 FILLER_0_22_153
*889 FILLER_0_22_165
*890 FILLER_0_22_177
*891 FILLER_0_22_189
*892 FILLER_0_22_195
*893 FILLER_0_22_197
*894 FILLER_0_22_209
*895 FILLER_0_22_221
*896 FILLER_0_22_233
*897 FILLER_0_22_245
*898 FILLER_0_22_251
*899 FILLER_0_22_253
*900 FILLER_0_22_265
*901 FILLER_0_22_27
*902 FILLER_0_22_277
*903 FILLER_0_22_289
*904 FILLER_0_22_29
*905 FILLER_0_22_3
*906 FILLER_0_22_301
*907 FILLER_0_22_307
*908 FILLER_0_22_309
*909 FILLER_0_22_321
*910 FILLER_0_22_333
*911 FILLER_0_22_41
*912 FILLER_0_22_53
*913 FILLER_0_22_65
*914 FILLER_0_22_77
*915 FILLER_0_22_83
*916 FILLER_0_22_85
*917 FILLER_0_22_97
*918 FILLER_0_23_101
*919 FILLER_0_23_129
*920 FILLER_0_23_134
*921 FILLER_0_23_15
*922 FILLER_0_23_158
*923 FILLER_0_23_166
*924 FILLER_0_23_169
*925 FILLER_0_23_177
*926 FILLER_0_23_183
*927 FILLER_0_23_189
*928 FILLER_0_23_198
*929 FILLER_0_23_210
*930 FILLER_0_23_217
*931 FILLER_0_23_223
*932 FILLER_0_23_234
*933 FILLER_0_23_242
*934 FILLER_0_23_255
*935 FILLER_0_23_267
*936 FILLER_0_23_27
*937 FILLER_0_23_279
*938 FILLER_0_23_281
*939 FILLER_0_23_293
*940 FILLER_0_23_3
*941 FILLER_0_23_305
*942 FILLER_0_23_317
*943 FILLER_0_23_329
*944 FILLER_0_23_39
*945 FILLER_0_23_51
*946 FILLER_0_23_55
*947 FILLER_0_23_57
*948 FILLER_0_23_69
*949 FILLER_0_23_81
*950 FILLER_0_23_93
*951 FILLER_0_24_100
*952 FILLER_0_24_104
*953 FILLER_0_24_114
*954 FILLER_0_24_139
*955 FILLER_0_24_144
*956 FILLER_0_24_15
*957 FILLER_0_24_164
*958 FILLER_0_24_192
*959 FILLER_0_24_206
*960 FILLER_0_24_210
*961 FILLER_0_24_251
*962 FILLER_0_24_27
*963 FILLER_0_24_280
*964 FILLER_0_24_29
*965 FILLER_0_24_292
*966 FILLER_0_24_3
*967 FILLER_0_24_304
*968 FILLER_0_24_309
*969 FILLER_0_24_326
*970 FILLER_0_24_334
*971 FILLER_0_24_41
*972 FILLER_0_24_53
*973 FILLER_0_24_65
*974 FILLER_0_24_83
*975 FILLER_0_24_85
*976 FILLER_0_24_94
*977 FILLER_0_25_113
*978 FILLER_0_25_15
*979 FILLER_0_25_161
*980 FILLER_0_25_167
*981 FILLER_0_25_178
*982 FILLER_0_25_250
*983 FILLER_0_25_27
*984 FILLER_0_25_279
*985 FILLER_0_25_290
*986 FILLER_0_25_294
*987 FILLER_0_25_3
*988 FILLER_0_25_311
*989 FILLER_0_25_329
*990 FILLER_0_25_39
*991 FILLER_0_25_51
*992 FILLER_0_25_55
*993 FILLER_0_25_57
*994 FILLER_0_25_94
*995 FILLER_0_26_128
*996 FILLER_0_26_138
*997 FILLER_0_26_15
*998 FILLER_0_26_177
*999 FILLER_0_26_183
*1000 FILLER_0_26_214
*1001 FILLER_0_26_245
*1002 FILLER_0_26_27
*1003 FILLER_0_26_278
*1004 FILLER_0_26_29
*1005 FILLER_0_26_3
*1006 FILLER_0_26_301
*1007 FILLER_0_26_307
*1008 FILLER_0_26_333
*1009 FILLER_0_26_41
*1010 FILLER_0_26_53
*1011 FILLER_0_26_81
*1012 FILLER_0_26_85
*1013 FILLER_0_27_134
*1014 FILLER_0_27_142
*1015 FILLER_0_27_15
*1016 FILLER_0_27_177
*1017 FILLER_0_27_248
*1018 FILLER_0_27_27
*1019 FILLER_0_27_279
*1020 FILLER_0_27_281
*1021 FILLER_0_27_3
*1022 FILLER_0_27_332
*1023 FILLER_0_27_39
*1024 FILLER_0_27_51
*1025 FILLER_0_27_55
*1026 FILLER_0_27_57
*1027 FILLER_0_27_65
*1028 FILLER_0_28_102
*1029 FILLER_0_28_132
*1030 FILLER_0_28_136
*1031 FILLER_0_28_141
*1032 FILLER_0_28_15
*1033 FILLER_0_28_173
*1034 FILLER_0_28_179
*1035 FILLER_0_28_206
*1036 FILLER_0_28_231
*1037 FILLER_0_28_240
*1038 FILLER_0_28_250
*1039 FILLER_0_28_269
*1040 FILLER_0_28_27
*1041 FILLER_0_28_281
*1042 FILLER_0_28_287
*1043 FILLER_0_28_29
*1044 FILLER_0_28_3
*1045 FILLER_0_28_309
*1046 FILLER_0_28_334
*1047 FILLER_0_28_41
*1048 FILLER_0_28_53
*1049 FILLER_0_28_61
*1050 FILLER_0_29_107
*1051 FILLER_0_29_111
*1052 FILLER_0_29_113
*1053 FILLER_0_29_141
*1054 FILLER_0_29_15
*1055 FILLER_0_29_164
*1056 FILLER_0_29_182
*1057 FILLER_0_29_193
*1058 FILLER_0_29_215
*1059 FILLER_0_29_237
*1060 FILLER_0_29_27
*1061 FILLER_0_29_3
*1062 FILLER_0_29_326
*1063 FILLER_0_29_39
*1064 FILLER_0_29_51
*1065 FILLER_0_29_55
*1066 FILLER_0_29_57
*1067 FILLER_0_29_72
*1068 FILLER_0_2_109
*1069 FILLER_0_2_121
*1070 FILLER_0_2_133
*1071 FILLER_0_2_139
*1072 FILLER_0_2_141
*1073 FILLER_0_2_15
*1074 FILLER_0_2_153
*1075 FILLER_0_2_165
*1076 FILLER_0_2_177
*1077 FILLER_0_2_189
*1078 FILLER_0_2_195
*1079 FILLER_0_2_197
*1080 FILLER_0_2_209
*1081 FILLER_0_2_221
*1082 FILLER_0_2_233
*1083 FILLER_0_2_245
*1084 FILLER_0_2_251
*1085 FILLER_0_2_253
*1086 FILLER_0_2_265
*1087 FILLER_0_2_27
*1088 FILLER_0_2_277
*1089 FILLER_0_2_289
*1090 FILLER_0_2_29
*1091 FILLER_0_2_3
*1092 FILLER_0_2_301
*1093 FILLER_0_2_307
*1094 FILLER_0_2_309
*1095 FILLER_0_2_321
*1096 FILLER_0_2_333
*1097 FILLER_0_2_41
*1098 FILLER_0_2_53
*1099 FILLER_0_2_65
*1100 FILLER_0_2_77
*1101 FILLER_0_2_83
*1102 FILLER_0_2_85
*1103 FILLER_0_2_97
*1104 FILLER_0_30_149
*1105 FILLER_0_30_15
*1106 FILLER_0_30_166
*1107 FILLER_0_30_183
*1108 FILLER_0_30_202
*1109 FILLER_0_30_215
*1110 FILLER_0_30_251
*1111 FILLER_0_30_27
*1112 FILLER_0_30_270
*1113 FILLER_0_30_29
*1114 FILLER_0_30_3
*1115 FILLER_0_30_302
*1116 FILLER_0_30_309
*1117 FILLER_0_30_331
*1118 FILLER_0_30_41
*1119 FILLER_0_30_53
*1120 FILLER_0_31_107
*1121 FILLER_0_31_111
*1122 FILLER_0_31_113
*1123 FILLER_0_31_136
*1124 FILLER_0_31_148
*1125 FILLER_0_31_15
*1126 FILLER_0_31_156
*1127 FILLER_0_31_169
*1128 FILLER_0_31_179
*1129 FILLER_0_31_218
*1130 FILLER_0_31_225
*1131 FILLER_0_31_229
*1132 FILLER_0_31_254
*1133 FILLER_0_31_266
*1134 FILLER_0_31_27
*1135 FILLER_0_31_277
*1136 FILLER_0_31_281
*1137 FILLER_0_31_3
*1138 FILLER_0_31_300
*1139 FILLER_0_31_39
*1140 FILLER_0_31_51
*1141 FILLER_0_31_55
*1142 FILLER_0_31_57
*1143 FILLER_0_31_69
*1144 FILLER_0_32_118
*1145 FILLER_0_32_141
*1146 FILLER_0_32_149
*1147 FILLER_0_32_15
*1148 FILLER_0_32_161
*1149 FILLER_0_32_173
*1150 FILLER_0_32_185
*1151 FILLER_0_32_189
*1152 FILLER_0_32_195
*1153 FILLER_0_32_197
*1154 FILLER_0_32_219
*1155 FILLER_0_32_251
*1156 FILLER_0_32_253
*1157 FILLER_0_32_27
*1158 FILLER_0_32_282
*1159 FILLER_0_32_29
*1160 FILLER_0_32_290
*1161 FILLER_0_32_3
*1162 FILLER_0_32_304
*1163 FILLER_0_32_309
*1164 FILLER_0_32_320
*1165 FILLER_0_32_332
*1166 FILLER_0_32_41
*1167 FILLER_0_32_53
*1168 FILLER_0_32_94
*1169 FILLER_0_33_106
*1170 FILLER_0_33_119
*1171 FILLER_0_33_125
*1172 FILLER_0_33_143
*1173 FILLER_0_33_149
*1174 FILLER_0_33_15
*1175 FILLER_0_33_167
*1176 FILLER_0_33_183
*1177 FILLER_0_33_215
*1178 FILLER_0_33_254
*1179 FILLER_0_33_267
*1180 FILLER_0_33_27
*1181 FILLER_0_33_271
*1182 FILLER_0_33_277
*1183 FILLER_0_33_281
*1184 FILLER_0_33_293
*1185 FILLER_0_33_3
*1186 FILLER_0_33_334
*1187 FILLER_0_33_39
*1188 FILLER_0_33_51
*1189 FILLER_0_33_55
*1190 FILLER_0_33_57
*1191 FILLER_0_33_69
*1192 FILLER_0_33_73
*1193 FILLER_0_34_102
*1194 FILLER_0_34_106
*1195 FILLER_0_34_141
*1196 FILLER_0_34_15
*1197 FILLER_0_34_183
*1198 FILLER_0_34_194
*1199 FILLER_0_34_214
*1200 FILLER_0_34_226
*1201 FILLER_0_34_235
*1202 FILLER_0_34_248
*1203 FILLER_0_34_268
*1204 FILLER_0_34_27
*1205 FILLER_0_34_281
*1206 FILLER_0_34_29
*1207 FILLER_0_34_3
*1208 FILLER_0_34_307
*1209 FILLER_0_34_312
*1210 FILLER_0_34_331
*1211 FILLER_0_34_41
*1212 FILLER_0_34_53
*1213 FILLER_0_34_65
*1214 FILLER_0_35_111
*1215 FILLER_0_35_134
*1216 FILLER_0_35_15
*1217 FILLER_0_35_154
*1218 FILLER_0_35_167
*1219 FILLER_0_35_188
*1220 FILLER_0_35_200
*1221 FILLER_0_35_208
*1222 FILLER_0_35_219
*1223 FILLER_0_35_241
*1224 FILLER_0_35_27
*1225 FILLER_0_35_276
*1226 FILLER_0_35_3
*1227 FILLER_0_35_328
*1228 FILLER_0_35_334
*1229 FILLER_0_35_39
*1230 FILLER_0_35_51
*1231 FILLER_0_35_55
*1232 FILLER_0_35_57
*1233 FILLER_0_35_63
*1234 FILLER_0_35_89
*1235 FILLER_0_35_99
*1236 FILLER_0_36_103
*1237 FILLER_0_36_109
*1238 FILLER_0_36_141
*1239 FILLER_0_36_15
*1240 FILLER_0_36_176
*1241 FILLER_0_36_188
*1242 FILLER_0_36_195
*1243 FILLER_0_36_230
*1244 FILLER_0_36_27
*1245 FILLER_0_36_29
*1246 FILLER_0_36_290
*1247 FILLER_0_36_3
*1248 FILLER_0_36_309
*1249 FILLER_0_36_41
*1250 FILLER_0_36_53
*1251 FILLER_0_36_65
*1252 FILLER_0_37_102
*1253 FILLER_0_37_108
*1254 FILLER_0_37_129
*1255 FILLER_0_37_15
*1256 FILLER_0_37_185
*1257 FILLER_0_37_218
*1258 FILLER_0_37_242
*1259 FILLER_0_37_251
*1260 FILLER_0_37_27
*1261 FILLER_0_37_289
*1262 FILLER_0_37_3
*1263 FILLER_0_37_39
*1264 FILLER_0_37_51
*1265 FILLER_0_37_55
*1266 FILLER_0_37_57
*1267 FILLER_0_37_69
*1268 FILLER_0_38_10
*1269 FILLER_0_38_102
*1270 FILLER_0_38_106
*1271 FILLER_0_38_110
*1272 FILLER_0_38_113
*1273 FILLER_0_38_118
*1274 FILLER_0_38_122
*1275 FILLER_0_38_126
*1276 FILLER_0_38_14
*1277 FILLER_0_38_165
*1278 FILLER_0_38_169
*1279 FILLER_0_38_18
*1280 FILLER_0_38_181
*1281 FILLER_0_38_187
*1282 FILLER_0_38_200
*1283 FILLER_0_38_218
*1284 FILLER_0_38_22
*1285 FILLER_0_38_225
*1286 FILLER_0_38_237
*1287 FILLER_0_38_249
*1288 FILLER_0_38_256
*1289 FILLER_0_38_278
*1290 FILLER_0_38_289
*1291 FILLER_0_38_32
*1292 FILLER_0_38_334
*1293 FILLER_0_38_38
*1294 FILLER_0_38_42
*1295 FILLER_0_38_46
*1296 FILLER_0_38_50
*1297 FILLER_0_38_54
*1298 FILLER_0_38_57
*1299 FILLER_0_38_6
*1300 FILLER_0_38_62
*1301 FILLER_0_38_66
*1302 FILLER_0_38_70
*1303 FILLER_0_38_74
*1304 FILLER_0_38_96
*1305 FILLER_0_3_105
*1306 FILLER_0_3_111
*1307 FILLER_0_3_113
*1308 FILLER_0_3_125
*1309 FILLER_0_3_137
*1310 FILLER_0_3_149
*1311 FILLER_0_3_15
*1312 FILLER_0_3_161
*1313 FILLER_0_3_167
*1314 FILLER_0_3_169
*1315 FILLER_0_3_181
*1316 FILLER_0_3_193
*1317 FILLER_0_3_205
*1318 FILLER_0_3_217
*1319 FILLER_0_3_223
*1320 FILLER_0_3_225
*1321 FILLER_0_3_237
*1322 FILLER_0_3_249
*1323 FILLER_0_3_261
*1324 FILLER_0_3_27
*1325 FILLER_0_3_273
*1326 FILLER_0_3_279
*1327 FILLER_0_3_281
*1328 FILLER_0_3_293
*1329 FILLER_0_3_3
*1330 FILLER_0_3_305
*1331 FILLER_0_3_317
*1332 FILLER_0_3_329
*1333 FILLER_0_3_39
*1334 FILLER_0_3_51
*1335 FILLER_0_3_55
*1336 FILLER_0_3_57
*1337 FILLER_0_3_69
*1338 FILLER_0_3_81
*1339 FILLER_0_3_93
*1340 FILLER_0_4_109
*1341 FILLER_0_4_121
*1342 FILLER_0_4_133
*1343 FILLER_0_4_139
*1344 FILLER_0_4_141
*1345 FILLER_0_4_15
*1346 FILLER_0_4_153
*1347 FILLER_0_4_165
*1348 FILLER_0_4_177
*1349 FILLER_0_4_189
*1350 FILLER_0_4_195
*1351 FILLER_0_4_197
*1352 FILLER_0_4_209
*1353 FILLER_0_4_221
*1354 FILLER_0_4_233
*1355 FILLER_0_4_245
*1356 FILLER_0_4_251
*1357 FILLER_0_4_253
*1358 FILLER_0_4_265
*1359 FILLER_0_4_27
*1360 FILLER_0_4_277
*1361 FILLER_0_4_289
*1362 FILLER_0_4_29
*1363 FILLER_0_4_3
*1364 FILLER_0_4_301
*1365 FILLER_0_4_307
*1366 FILLER_0_4_309
*1367 FILLER_0_4_321
*1368 FILLER_0_4_333
*1369 FILLER_0_4_41
*1370 FILLER_0_4_53
*1371 FILLER_0_4_65
*1372 FILLER_0_4_77
*1373 FILLER_0_4_83
*1374 FILLER_0_4_85
*1375 FILLER_0_4_97
*1376 FILLER_0_5_105
*1377 FILLER_0_5_111
*1378 FILLER_0_5_113
*1379 FILLER_0_5_125
*1380 FILLER_0_5_137
*1381 FILLER_0_5_149
*1382 FILLER_0_5_15
*1383 FILLER_0_5_161
*1384 FILLER_0_5_167
*1385 FILLER_0_5_169
*1386 FILLER_0_5_181
*1387 FILLER_0_5_193
*1388 FILLER_0_5_205
*1389 FILLER_0_5_217
*1390 FILLER_0_5_223
*1391 FILLER_0_5_225
*1392 FILLER_0_5_237
*1393 FILLER_0_5_249
*1394 FILLER_0_5_261
*1395 FILLER_0_5_27
*1396 FILLER_0_5_273
*1397 FILLER_0_5_279
*1398 FILLER_0_5_281
*1399 FILLER_0_5_293
*1400 FILLER_0_5_3
*1401 FILLER_0_5_305
*1402 FILLER_0_5_317
*1403 FILLER_0_5_329
*1404 FILLER_0_5_39
*1405 FILLER_0_5_51
*1406 FILLER_0_5_55
*1407 FILLER_0_5_57
*1408 FILLER_0_5_69
*1409 FILLER_0_5_81
*1410 FILLER_0_5_93
*1411 FILLER_0_6_109
*1412 FILLER_0_6_121
*1413 FILLER_0_6_133
*1414 FILLER_0_6_139
*1415 FILLER_0_6_141
*1416 FILLER_0_6_15
*1417 FILLER_0_6_153
*1418 FILLER_0_6_165
*1419 FILLER_0_6_177
*1420 FILLER_0_6_189
*1421 FILLER_0_6_195
*1422 FILLER_0_6_197
*1423 FILLER_0_6_209
*1424 FILLER_0_6_221
*1425 FILLER_0_6_233
*1426 FILLER_0_6_245
*1427 FILLER_0_6_251
*1428 FILLER_0_6_253
*1429 FILLER_0_6_265
*1430 FILLER_0_6_27
*1431 FILLER_0_6_277
*1432 FILLER_0_6_289
*1433 FILLER_0_6_29
*1434 FILLER_0_6_3
*1435 FILLER_0_6_301
*1436 FILLER_0_6_307
*1437 FILLER_0_6_309
*1438 FILLER_0_6_321
*1439 FILLER_0_6_333
*1440 FILLER_0_6_41
*1441 FILLER_0_6_53
*1442 FILLER_0_6_65
*1443 FILLER_0_6_77
*1444 FILLER_0_6_83
*1445 FILLER_0_6_85
*1446 FILLER_0_6_97
*1447 FILLER_0_7_105
*1448 FILLER_0_7_111
*1449 FILLER_0_7_113
*1450 FILLER_0_7_125
*1451 FILLER_0_7_137
*1452 FILLER_0_7_149
*1453 FILLER_0_7_15
*1454 FILLER_0_7_161
*1455 FILLER_0_7_167
*1456 FILLER_0_7_169
*1457 FILLER_0_7_181
*1458 FILLER_0_7_193
*1459 FILLER_0_7_205
*1460 FILLER_0_7_217
*1461 FILLER_0_7_223
*1462 FILLER_0_7_225
*1463 FILLER_0_7_237
*1464 FILLER_0_7_249
*1465 FILLER_0_7_261
*1466 FILLER_0_7_27
*1467 FILLER_0_7_273
*1468 FILLER_0_7_279
*1469 FILLER_0_7_281
*1470 FILLER_0_7_293
*1471 FILLER_0_7_3
*1472 FILLER_0_7_305
*1473 FILLER_0_7_317
*1474 FILLER_0_7_329
*1475 FILLER_0_7_39
*1476 FILLER_0_7_51
*1477 FILLER_0_7_55
*1478 FILLER_0_7_57
*1479 FILLER_0_7_69
*1480 FILLER_0_7_81
*1481 FILLER_0_7_93
*1482 FILLER_0_8_109
*1483 FILLER_0_8_121
*1484 FILLER_0_8_133
*1485 FILLER_0_8_139
*1486 FILLER_0_8_141
*1487 FILLER_0_8_15
*1488 FILLER_0_8_153
*1489 FILLER_0_8_165
*1490 FILLER_0_8_177
*1491 FILLER_0_8_189
*1492 FILLER_0_8_195
*1493 FILLER_0_8_197
*1494 FILLER_0_8_209
*1495 FILLER_0_8_221
*1496 FILLER_0_8_233
*1497 FILLER_0_8_245
*1498 FILLER_0_8_251
*1499 FILLER_0_8_253
*1500 FILLER_0_8_265
*1501 FILLER_0_8_27
*1502 FILLER_0_8_277
*1503 FILLER_0_8_289
*1504 FILLER_0_8_29
*1505 FILLER_0_8_3
*1506 FILLER_0_8_301
*1507 FILLER_0_8_307
*1508 FILLER_0_8_309
*1509 FILLER_0_8_321
*1510 FILLER_0_8_333
*1511 FILLER_0_8_41
*1512 FILLER_0_8_53
*1513 FILLER_0_8_65
*1514 FILLER_0_8_77
*1515 FILLER_0_8_83
*1516 FILLER_0_8_85
*1517 FILLER_0_8_97
*1518 FILLER_0_9_105
*1519 FILLER_0_9_111
*1520 FILLER_0_9_113
*1521 FILLER_0_9_125
*1522 FILLER_0_9_137
*1523 FILLER_0_9_149
*1524 FILLER_0_9_15
*1525 FILLER_0_9_161
*1526 FILLER_0_9_167
*1527 FILLER_0_9_169
*1528 FILLER_0_9_181
*1529 FILLER_0_9_193
*1530 FILLER_0_9_205
*1531 FILLER_0_9_217
*1532 FILLER_0_9_223
*1533 FILLER_0_9_225
*1534 FILLER_0_9_237
*1535 FILLER_0_9_249
*1536 FILLER_0_9_261
*1537 FILLER_0_9_27
*1538 FILLER_0_9_273
*1539 FILLER_0_9_279
*1540 FILLER_0_9_281
*1541 FILLER_0_9_293
*1542 FILLER_0_9_3
*1543 FILLER_0_9_305
*1544 FILLER_0_9_317
*1545 FILLER_0_9_329
*1546 FILLER_0_9_39
*1547 FILLER_0_9_51
*1548 FILLER_0_9_55
*1549 FILLER_0_9_57
*1550 FILLER_0_9_69
*1551 FILLER_0_9_81
*1552 FILLER_0_9_93
*1553 PHY_EDGE_ROW_0_Left_39
*1554 PHY_EDGE_ROW_0_Right_0
*1555 PHY_EDGE_ROW_10_Left_49
*1556 PHY_EDGE_ROW_10_Right_10
*1557 PHY_EDGE_ROW_11_Left_50
*1558 PHY_EDGE_ROW_11_Right_11
*1559 PHY_EDGE_ROW_12_Left_51
*1560 PHY_EDGE_ROW_12_Right_12
*1561 PHY_EDGE_ROW_13_Left_52
*1562 PHY_EDGE_ROW_13_Right_13