*SPEF "ieee 1481-1999"
*DESIGN "tt_um_ericsmi_weste_problem_4_11"
*DATE "18:42:49 Thursday April 18, 2024"
*VENDOR "The OpenROAD Project"
*PROGRAM "OpenROAD"
*VERSION "0889970d1790a2617e69f253221b8bd7626e51dc"
*DESIGN_FLOW "NAME_SCOPE LOCAL" "PIN_CAP NONE"
*DIVIDER /
*DELIMITER :
*BUS_DELIMITER []
*T_UNIT 1 NS
*C_UNIT 1 PF
*R_UNIT 1 OHM
*L_UNIT 1 HENRY

*NAME_MAP
*3 clk
*4 ena
*5 rst_n
*6 ui_in[0]
*7 ui_in[1]
*8 ui_in[2]
*9 ui_in[3]
*10 ui_in[4]
*11 ui_in[5]
*12 ui_in[6]
*13 ui_in[7]
*14 uio_in[0]
*15 uio_in[1]
*16 uio_in[2]
*17 uio_in[3]
*18 uio_in[4]
*19 uio_in[5]
*20 uio_in[6]
*21 uio_in[7]
*22 net74
*23 net75
*24 net76
*25 net77
*26 net78
*27 net79
*28 net80
*29 net81
*30 net82
*31 net83
*32 net84
*33 net85
*34 net86
*35 net87
*36 net88
*37 net89
*38 uo_out[0]
*39 uo_out[1]
*40 uo_out[2]
*41 uo_out[3]
*42 uo_out[4]
*43 uo_out[5]
*44 uo_out[6]
*45 uo_out[7]
*46 _000_
*47 _001_
*48 _002_
*49 _003_
*50 _004_
*51 _005_
*52 _006_
*53 _007_
*54 _008_
*55 _009_
*56 _010_
*57 _011_
*58 _012_
*59 _013_
*60 _014_
*61 _015_
*62 _016_
*63 _017_
*64 _018_
*65 _019_
*66 _020_
*67 _021_
*68 _022_
*69 _023_
*70 _024_
*71 _025_
*72 _026_
*73 _027_
*74 _028_
*75 _029_
*76 _030_
*77 _031_
*78 _032_
*79 _033_
*80 divider\.clk
*81 divider\.counter\[0\]\.d
*82 divider\.counter\[0\]\.q
*83 divider\.counter\[1\]\.d
*84 divider\.counter\[1\]\.q
*85 divider\.counter\[2\]\.d
*86 divider\.counter\[2\]\.q
*87 divider\.counter\[3\]\.d
*88 divider\.counter\[3\]\.q
*89 divider\.overflow
*90 net1
*91 net10
*92 net11
*93 net12
*94 net13
*95 net14
*96 net15
*97 net16
*98 net17
*99 net18
*100 net19
*101 net2
*102 net20
*103 net21
*104 net22
*105 net23
*106 net24
*107 net25
*108 net26
*109 net27
*110 net28
*111 net29
*112 net3
*113 net30
*114 net31
*115 net32
*116 net33
*117 net34
*118 net35
*119 net36
*120 net37
*121 net38
*122 net39
*123 net4
*124 net40
*125 net41
*126 net42
*127 net43
*128 net44
*129 net45
*130 net46
*131 net47
*132 net48
*133 net49
*134 net5
*135 net50
*136 net51
*137 net52
*138 net53
*139 net54
*140 net55
*141 net56
*142 net57
*143 net58
*144 net59
*145 net6
*146 net60
*147 net61
*148 net62
*149 net63
*150 net64
*151 net65
*152 net66
*153 net67
*154 net68
*155 net69
*156 net7
*157 net70
*158 net71
*159 net72
*160 net73
*161 net8
*162 net9
*163 net90
*164 ring_osc_part_a_h1/_00_
*165 ring_osc_part_a_h1/_01_
*166 ring_osc_part_a_h1/_02_
*167 ring_osc_part_a_h1/_03_
*168 ring_osc_part_a_h1/_04_
*169 ring_osc_part_a_h1/_05_
*170 ring_osc_part_a_h1/and_pa_h1_0\.x
*171 ring_osc_part_a_h1/and_pa_h1_0\.y
*172 ring_osc_part_a_h1/and_pa_h1_1\.x
*173 ring_osc_part_a_h1/and_pa_h1_1\.y
*174 ring_osc_part_a_h1/and_pa_h1_2\.x
*175 ring_osc_part_a_h1/and_pa_h1_2\.y
*176 ring_osc_part_a_h1/i0\.w
*177 ring_osc_part_a_h1/i1\.w
*178 ring_osc_part_a_h1/i2\.w
*179 ring_osc_part_a_h1/lb
*180 ring_osc_part_a_h20/_00_
*181 ring_osc_part_a_h20/_01_
*182 ring_osc_part_a_h20/_02_
*183 ring_osc_part_a_h20/_03_
*184 ring_osc_part_a_h20/_04_
*185 ring_osc_part_a_h20/_05_
*186 ring_osc_part_a_h20/and_pa_h20_0\.x
*187 ring_osc_part_a_h20/and_pa_h20_0\.y
*188 ring_osc_part_a_h20/and_pa_h20_1\.x
*189 ring_osc_part_a_h20/and_pa_h20_1\.y
*190 ring_osc_part_a_h20/and_pa_h20_2\.x
*191 ring_osc_part_a_h20/and_pa_h20_2\.y
*192 ring_osc_part_a_h20/i0\.w\[0\]
*193 ring_osc_part_a_h20/i0\.w\[10\]
*194 ring_osc_part_a_h20/i0\.w\[11\]
*195 ring_osc_part_a_h20/i0\.w\[12\]
*196 ring_osc_part_a_h20/i0\.w\[13\]
*197 ring_osc_part_a_h20/i0\.w\[14\]
*198 ring_osc_part_a_h20/i0\.w\[15\]
*199 ring_osc_part_a_h20/i0\.w\[16\]
*200 ring_osc_part_a_h20/i0\.w\[17\]
*201 ring_osc_part_a_h20/i0\.w\[18\]
*202 ring_osc_part_a_h20/i0\.w\[19\]
*203 ring_osc_part_a_h20/i0\.w\[1\]
*204 ring_osc_part_a_h20/i0\.w\[2\]
*205 ring_osc_part_a_h20/i0\.w\[3\]
*206 ring_osc_part_a_h20/i0\.w\[4\]
*207 ring_osc_part_a_h20/i0\.w\[5\]
*208 ring_osc_part_a_h20/i0\.w\[6\]
*209 ring_osc_part_a_h20/i0\.w\[7\]
*210 ring_osc_part_a_h20/i0\.w\[8\]
*211 ring_osc_part_a_h20/i0\.w\[9\]
*212 ring_osc_part_a_h20/i1\.w\[0\]
*213 ring_osc_part_a_h20/i1\.w\[10\]
*214 ring_osc_part_a_h20/i1\.w\[11\]
*215 ring_osc_part_a_h20/i1\.w\[12\]
*216 ring_osc_part_a_h20/i1\.w\[13\]
*217 ring_osc_part_a_h20/i1\.w\[14\]
*218 ring_osc_part_a_h20/i1\.w\[15\]
*219 ring_osc_part_a_h20/i1\.w\[16\]
*220 ring_osc_part_a_h20/i1\.w\[17\]
*221 ring_osc_part_a_h20/i1\.w\[18\]
*222 ring_osc_part_a_h20/i1\.w\[19\]
*223 ring_osc_part_a_h20/i1\.w\[1\]
*224 ring_osc_part_a_h20/i1\.w\[2\]
*225 ring_osc_part_a_h20/i1\.w\[3\]
*226 ring_osc_part_a_h20/i1\.w\[4\]
*227 ring_osc_part_a_h20/i1\.w\[5\]
*228 ring_osc_part_a_h20/i1\.w\[6\]
*229 ring_osc_part_a_h20/i1\.w\[7\]
*230 ring_osc_part_a_h20/i1\.w\[8\]
*231 ring_osc_part_a_h20/i1\.w\[9\]
*232 ring_osc_part_a_h20/i2\.w\[0\]
*233 ring_osc_part_a_h20/i2\.w\[10\]
*234 ring_osc_part_a_h20/i2\.w\[11\]
*235 ring_osc_part_a_h20/i2\.w\[12\]
*236 ring_osc_part_a_h20/i2\.w\[13\]
*237 ring_osc_part_a_h20/i2\.w\[14\]
*238 ring_osc_part_a_h20/i2\.w\[15\]
*239 ring_osc_part_a_h20/i2\.w\[16\]
*240 ring_osc_part_a_h20/i2\.w\[17\]
*241 ring_osc_part_a_h20/i2\.w\[18\]
*242 ring_osc_part_a_h20/i2\.w\[19\]
*243 ring_osc_part_a_h20/i2\.w\[1\]
*244 ring_osc_part_a_h20/i2\.w\[2\]
*245 ring_osc_part_a_h20/i2\.w\[3\]
*246 ring_osc_part_a_h20/i2\.w\[4\]
*247 ring_osc_part_a_h20/i2\.w\[5\]
*248 ring_osc_part_a_h20/i2\.w\[6\]
*249 ring_osc_part_a_h20/i2\.w\[7\]
*250 ring_osc_part_a_h20/i2\.w\[8\]
*251 ring_osc_part_a_h20/i2\.w\[9\]
*252 ring_osc_part_a_h20/lb
*253 ring_osc_part_a_h5/_00_
*254 ring_osc_part_a_h5/_01_
*255 ring_osc_part_a_h5/_02_
*256 ring_osc_part_a_h5/_03_
*257 ring_osc_part_a_h5/_04_
*258 ring_osc_part_a_h5/_05_
*259 ring_osc_part_a_h5/and_pa_h5_0\.x
*260 ring_osc_part_a_h5/and_pa_h5_0\.y
*261 ring_osc_part_a_h5/and_pa_h5_1\.x
*262 ring_osc_part_a_h5/and_pa_h5_1\.y
*263 ring_osc_part_a_h5/and_pa_h5_2\.x
*264 ring_osc_part_a_h5/and_pa_h5_2\.y
*265 ring_osc_part_a_h5/i0\.w\[0\]
*266 ring_osc_part_a_h5/i0\.w\[1\]
*267 ring_osc_part_a_h5/i0\.w\[2\]
*268 ring_osc_part_a_h5/i0\.w\[3\]
*269 ring_osc_part_a_h5/i0\.w\[4\]
*270 ring_osc_part_a_h5/i1\.w\[0\]
*271 ring_osc_part_a_h5/i1\.w\[1\]
*272 ring_osc_part_a_h5/i1\.w\[2\]
*273 ring_osc_part_a_h5/i1\.w\[3\]
*274 ring_osc_part_a_h5/i1\.w\[4\]
*275 ring_osc_part_a_h5/i2\.w\[0\]
*276 ring_osc_part_a_h5/i2\.w\[1\]
*277 ring_osc_part_a_h5/i2\.w\[2\]
*278 ring_osc_part_a_h5/i2\.w\[3\]
*279 ring_osc_part_a_h5/i2\.w\[4\]
*280 ring_osc_part_a_h5/lb
*281 ring_osc_part_b_h1/_00_
*282 ring_osc_part_b_h1/_01_
*283 ring_osc_part_b_h1/_02_
*284 ring_osc_part_b_h1/_03_
*285 ring_osc_part_b_h1/_04_
*286 ring_osc_part_b_h1/_05_
*287 ring_osc_part_b_h1/and_pb_h1_0\.x\[0\]
*288 ring_osc_part_b_h1/and_pb_h1_0\.x\[1\]
*289 ring_osc_part_b_h1/and_pb_h1_0\.y
*290 ring_osc_part_b_h1/and_pb_h1_1\.x\[0\]
*291 ring_osc_part_b_h1/and_pb_h1_1\.x\[1\]
*292 ring_osc_part_b_h1/and_pb_h1_1\.y
*293 ring_osc_part_b_h1/and_pb_h1_2\.x\[0\]
*294 ring_osc_part_b_h1/and_pb_h1_2\.x\[1\]
*295 ring_osc_part_b_h1/and_pb_h1_2\.y
*296 ring_osc_part_b_h1/i0\.w
*297 ring_osc_part_b_h1/i1\.w
*298 ring_osc_part_b_h1/i2\.w
*299 ring_osc_part_b_h1/lb
*300 ring_osc_part_b_h20/_00_
*301 ring_osc_part_b_h20/_01_
*302 ring_osc_part_b_h20/_02_
*303 ring_osc_part_b_h20/_03_
*304 ring_osc_part_b_h20/_04_
*305 ring_osc_part_b_h20/_05_
*306 ring_osc_part_b_h20/and_pb_h20_0\.x\[0\]
*307 ring_osc_part_b_h20/and_pb_h20_0\.x\[1\]
*308 ring_osc_part_b_h20/and_pb_h20_0\.y
*309 ring_osc_part_b_h20/and_pb_h20_1\.x\[0\]
*310 ring_osc_part_b_h20/and_pb_h20_1\.x\[1\]
*311 ring_osc_part_b_h20/and_pb_h20_1\.y
*312 ring_osc_part_b_h20/and_pb_h20_2\.x\[0\]
*313 ring_osc_part_b_h20/and_pb_h20_2\.x\[1\]
*314 ring_osc_part_b_h20/and_pb_h20_2\.y
*315 ring_osc_part_b_h20/i0\.w\[0\]
*316 ring_osc_part_b_h20/i0\.w\[10\]
*317 ring_osc_part_b_h20/i0\.w\[11\]
*318 ring_osc_part_b_h20/i0\.w\[12\]
*319 ring_osc_part_b_h20/i0\.w\[13\]
*320 ring_osc_part_b_h20/i0\.w\[14\]
*321 ring_osc_part_b_h20/i0\.w\[15\]
*322 ring_osc_part_b_h20/i0\.w\[16\]
*323 ring_osc_part_b_h20/i0\.w\[17\]
*324 ring_osc_part_b_h20/i0\.w\[18\]
*325 ring_osc_part_b_h20/i0\.w\[19\]
*326 ring_osc_part_b_h20/i0\.w\[1\]
*327 ring_osc_part_b_h20/i0\.w\[2\]
*328 ring_osc_part_b_h20/i0\.w\[3\]
*329 ring_osc_part_b_h20/i0\.w\[4\]
*330 ring_osc_part_b_h20/i0\.w\[5\]
*331 ring_osc_part_b_h20/i0\.w\[6\]
*332 ring_osc_part_b_h20/i0\.w\[7\]
*333 ring_osc_part_b_h20/i0\.w\[8\]
*334 ring_osc_part_b_h20/i0\.w\[9\]
*335 ring_osc_part_b_h20/i1\.w\[0\]
*336 ring_osc_part_b_h20/i1\.w\[10\]
*337 ring_osc_part_b_h20/i1\.w\[11\]
*338 ring_osc_part_b_h20/i1\.w\[12\]
*339 ring_osc_part_b_h20/i1\.w\[13\]
*340 ring_osc_part_b_h20/i1\.w\[14\]
*341 ring_osc_part_b_h20/i1\.w\[15\]
*342 ring_osc_part_b_h20/i1\.w\[16\]
*343 ring_osc_part_b_h20/i1\.w\[17\]
*344 ring_osc_part_b_h20/i1\.w\[18\]
*345 ring_osc_part_b_h20/i1\.w\[19\]
*346 ring_osc_part_b_h20/i1\.w\[1\]
*347 ring_osc_part_b_h20/i1\.w\[2\]
*348 ring_osc_part_b_h20/i1\.w\[3\]
*349 ring_osc_part_b_h20/i1\.w\[4\]
*350 ring_osc_part_b_h20/i1\.w\[5\]
*351 ring_osc_part_b_h20/i1\.w\[6\]
*352 ring_osc_part_b_h20/i1\.w\[7\]
*353 ring_osc_part_b_h20/i1\.w\[8\]
*354 ring_osc_part_b_h20/i1\.w\[9\]
*355 ring_osc_part_b_h20/i2\.w\[0\]
*356 ring_osc_part_b_h20/i2\.w\[10\]
*357 ring_osc_part_b_h20/i2\.w\[11\]
*358 ring_osc_part_b_h20/i2\.w\[12\]
*359 ring_osc_part_b_h20/i2\.w\[13\]
*360 ring_osc_part_b_h20/i2\.w\[14\]
*361 ring_osc_part_b_h20/i2\.w\[15\]
*362 ring_osc_part_b_h20/i2\.w\[16\]
*363 ring_osc_part_b_h20/i2\.w\[17\]
*364 ring_osc_part_b_h20/i2\.w\[18\]
*365 ring_osc_part_b_h20/i2\.w\[19\]
*366 ring_osc_part_b_h20/i2\.w\[1\]
*367 ring_osc_part_b_h20/i2\.w\[2\]
*368 ring_osc_part_b_h20/i2\.w\[3\]
*369 ring_osc_part_b_h20/i2\.w\[4\]
*370 ring_osc_part_b_h20/i2\.w\[5\]
*371 ring_osc_part_b_h20/i2\.w\[6\]
*372 ring_osc_part_b_h20/i2\.w\[7\]
*373 ring_osc_part_b_h20/i2\.w\[8\]
*374 ring_osc_part_b_h20/i2\.w\[9\]
*375 ring_osc_part_b_h20/lb
*376 ring_osc_part_b_h5/_00_
*377 ring_osc_part_b_h5/_01_
*378 ring_osc_part_b_h5/_02_
*379 ring_osc_part_b_h5/_03_
*380 ring_osc_part_b_h5/_04_
*381 ring_osc_part_b_h5/_05_
*382 ring_osc_part_b_h5/and_pb_h5_0\.x\[0\]
*383 ring_osc_part_b_h5/and_pb_h5_0\.x\[1\]
*384 ring_osc_part_b_h5/and_pb_h5_0\.y
*385 ring_osc_part_b_h5/and_pb_h5_1\.x\[0\]
*386 ring_osc_part_b_h5/and_pb_h5_1\.x\[1\]
*387 ring_osc_part_b_h5/and_pb_h5_1\.y
*388 ring_osc_part_b_h5/and_pb_h5_2\.x\[0\]
*389 ring_osc_part_b_h5/and_pb_h5_2\.x\[1\]
*390 ring_osc_part_b_h5/and_pb_h5_2\.y
*391 ring_osc_part_b_h5/i0\.w\[0\]
*392 ring_osc_part_b_h5/i0\.w\[1\]
*393 ring_osc_part_b_h5/i0\.w\[2\]
*394 ring_osc_part_b_h5/i0\.w\[3\]
*395 ring_osc_part_b_h5/i0\.w\[4\]
*396 ring_osc_part_b_h5/i1\.w\[0\]
*397 ring_osc_part_b_h5/i1\.w\[1\]
*398 ring_osc_part_b_h5/i1\.w\[2\]
*399 ring_osc_part_b_h5/i1\.w\[3\]
*400 ring_osc_part_b_h5/i1\.w\[4\]
*401 ring_osc_part_b_h5/i2\.w\[0\]
*402 ring_osc_part_b_h5/i2\.w\[1\]
*403 ring_osc_part_b_h5/i2\.w\[2\]
*404 ring_osc_part_b_h5/i2\.w\[3\]
*405 ring_osc_part_b_h5/i2\.w\[4\]
*406 ring_osc_part_b_h5/lb
*407 ring_osc_part_c_h1/_00_
*408 ring_osc_part_c_h1/_01_
*409 ring_osc_part_c_h1/_02_
*410 ring_osc_part_c_h1/_03_
*411 ring_osc_part_c_h1/_04_
*412 ring_osc_part_c_h1/_05_
*413 ring_osc_part_c_h1/and_pc_h1_0\.x\[0\]
*414 ring_osc_part_c_h1/and_pc_h1_0\.x\[1\]
*415 ring_osc_part_c_h1/and_pc_h1_0\.x\[2\]
*416 ring_osc_part_c_h1/and_pc_h1_0\.y
*417 ring_osc_part_c_h1/and_pc_h1_1\.x\[0\]
*418 ring_osc_part_c_h1/and_pc_h1_1\.x\[1\]
*419 ring_osc_part_c_h1/and_pc_h1_1\.x\[2\]
*420 ring_osc_part_c_h1/and_pc_h1_1\.y
*421 ring_osc_part_c_h1/and_pc_h1_2\.x\[0\]
*422 ring_osc_part_c_h1/and_pc_h1_2\.x\[1\]
*423 ring_osc_part_c_h1/and_pc_h1_2\.x\[2\]
*424 ring_osc_part_c_h1/and_pc_h1_2\.y
*425 ring_osc_part_c_h1/i0\.w
*426 ring_osc_part_c_h1/i1\.w
*427 ring_osc_part_c_h1/i2\.w
*428 ring_osc_part_c_h1/lb
*429 ring_osc_part_c_h20/_00_
*430 ring_osc_part_c_h20/_01_
*431 ring_osc_part_c_h20/_02_
*432 ring_osc_part_c_h20/_03_
*433 ring_osc_part_c_h20/_04_
*434 ring_osc_part_c_h20/_05_
*435 ring_osc_part_c_h20/and_pc_h20_0\.x\[0\]
*436 ring_osc_part_c_h20/and_pc_h20_0\.x\[1\]
*437 ring_osc_part_c_h20/and_pc_h20_0\.x\[2\]
*438 ring_osc_part_c_h20/and_pc_h20_0\.y
*439 ring_osc_part_c_h20/and_pc_h20_1\.x\[0\]
*440 ring_osc_part_c_h20/and_pc_h20_1\.x\[1\]
*441 ring_osc_part_c_h20/and_pc_h20_1\.x\[2\]
*442 ring_osc_part_c_h20/and_pc_h20_1\.y
*443 ring_osc_part_c_h20/and_pc_h20_2\.x\[0\]
*444 ring_osc_part_c_h20/and_pc_h20_2\.x\[1\]
*445 ring_osc_part_c_h20/and_pc_h20_2\.x\[2\]
*446 ring_osc_part_c_h20/and_pc_h20_2\.y
*447 ring_osc_part_c_h20/i0\.w\[0\]
*448 ring_osc_part_c_h20/i0\.w\[10\]
*449 ring_osc_part_c_h20/i0\.w\[11\]
*450 ring_osc_part_c_h20/i0\.w\[12\]
*451 ring_osc_part_c_h20/i0\.w\[13\]
*452 ring_osc_part_c_h20/i0\.w\[14\]
*453 ring_osc_part_c_h20/i0\.w\[15\]
*454 ring_osc_part_c_h20/i0\.w\[16\]
*455 ring_osc_part_c_h20/i0\.w\[17\]
*456 ring_osc_part_c_h20/i0\.w\[18\]
*457 ring_osc_part_c_h20/i0\.w\[19\]
*458 ring_osc_part_c_h20/i0\.w\[1\]
*459 ring_osc_part_c_h20/i0\.w\[2\]
*460 ring_osc_part_c_h20/i0\.w\[3\]
*461 ring_osc_part_c_h20/i0\.w\[4\]
*462 ring_osc_part_c_h20/i0\.w\[5\]
*463 ring_osc_part_c_h20/i0\.w\[6\]
*464 ring_osc_part_c_h20/i0\.w\[7\]
*465 ring_osc_part_c_h20/i0\.w\[8\]
*466 ring_osc_part_c_h20/i0\.w\[9\]
*467 ring_osc_part_c_h20/i1\.w\[0\]
*468 ring_osc_part_c_h20/i1\.w\[10\]
*469 ring_osc_part_c_h20/i1\.w\[11\]
*470 ring_osc_part_c_h20/i1\.w\[12\]
*471 ring_osc_part_c_h20/i1\.w\[13\]
*472 ring_osc_part_c_h20/i1\.w\[14\]
*473 ring_osc_part_c_h20/i1\.w\[15\]
*474 ring_osc_part_c_h20/i1\.w\[16\]
*475 ring_osc_part_c_h20/i1\.w\[17\]
*476 ring_osc_part_c_h20/i1\.w\[18\]
*477 ring_osc_part_c_h20/i1\.w\[19\]
*478 ring_osc_part_c_h20/i1\.w\[1\]
*479 ring_osc_part_c_h20/i1\.w\[2\]
*480 ring_osc_part_c_h20/i1\.w\[3\]
*481 ring_osc_part_c_h20/i1\.w\[4\]
*482 ring_osc_part_c_h20/i1\.w\[5\]
*483 ring_osc_part_c_h20/i1\.w\[6\]
*484 ring_osc_part_c_h20/i1\.w\[7\]
*485 ring_osc_part_c_h20/i1\.w\[8\]
*486 ring_osc_part_c_h20/i1\.w\[9\]
*487 ring_osc_part_c_h20/i2\.w\[0\]
*488 ring_osc_part_c_h20/i2\.w\[10\]
*489 ring_osc_part_c_h20/i2\.w\[11\]
*490 ring_osc_part_c_h20/i2\.w\[12\]
*491 ring_osc_part_c_h20/i2\.w\[13\]
*492 ring_osc_part_c_h20/i2\.w\[14\]
*493 ring_osc_part_c_h20/i2\.w\[15\]
*494 ring_osc_part_c_h20/i2\.w\[16\]
*495 ring_osc_part_c_h20/i2\.w\[17\]
*496 ring_osc_part_c_h20/i2\.w\[18\]
*497 ring_osc_part_c_h20/i2\.w\[19\]
*498 ring_osc_part_c_h20/i2\.w\[1\]
*499 ring_osc_part_c_h20/i2\.w\[2\]
*500 ring_osc_part_c_h20/i2\.w\[3\]
*501 ring_osc_part_c_h20/i2\.w\[4\]
*502 ring_osc_part_c_h20/i2\.w\[5\]
*503 ring_osc_part_c_h20/i2\.w\[6\]
*504 ring_osc_part_c_h20/i2\.w\[7\]
*505 ring_osc_part_c_h20/i2\.w\[8\]
*506 ring_osc_part_c_h20/i2\.w\[9\]
*507 ring_osc_part_c_h20/lb
*508 ring_osc_part_c_h5/_00_
*509 ring_osc_part_c_h5/_01_
*510 ring_osc_part_c_h5/_02_
*511 ring_osc_part_c_h5/_03_
*512 ring_osc_part_c_h5/_04_
*513 ring_osc_part_c_h5/_05_
*514 ring_osc_part_c_h5/and_pc_h5_0\.x\[0\]
*515 ring_osc_part_c_h5/and_pc_h5_0\.x\[1\]
*516 ring_osc_part_c_h5/and_pc_h5_0\.x\[2\]
*517 ring_osc_part_c_h5/and_pc_h5_0\.y
*518 ring_osc_part_c_h5/and_pc_h5_1\.x\[0\]
*519 ring_osc_part_c_h5/and_pc_h5_1\.x\[1\]
*520 ring_osc_part_c_h5/and_pc_h5_1\.x\[2\]
*521 ring_osc_part_c_h5/and_pc_h5_1\.y
*522 ring_osc_part_c_h5/and_pc_h5_2\.x\[0\]
*523 ring_osc_part_c_h5/and_pc_h5_2\.x\[1\]
*524 ring_osc_part_c_h5/and_pc_h5_2\.x\[2\]
*525 ring_osc_part_c_h5/and_pc_h5_2\.y
*526 ring_osc_part_c_h5/i0\.w\[0\]
*527 ring_osc_part_c_h5/i0\.w\[1\]
*528 ring_osc_part_c_h5/i0\.w\[2\]
*529 ring_osc_part_c_h5/i0\.w\[3\]
*530 ring_osc_part_c_h5/i0\.w\[4\]
*531 ring_osc_part_c_h5/i1\.w\[0\]
*532 ring_osc_part_c_h5/i1\.w\[1\]
*533 ring_osc_part_c_h5/i1\.w\[2\]
*534 ring_osc_part_c_h5/i1\.w\[3\]
*535 ring_osc_part_c_h5/i1\.w\[4\]
*536 ring_osc_part_c_h5/i2\.w\[0\]
*537 ring_osc_part_c_h5/i2\.w\[1\]
*538 ring_osc_part_c_h5/i2\.w\[2\]
*539 ring_osc_part_c_h5/i2\.w\[3\]
*540 ring_osc_part_c_h5/i2\.w\[4\]
*541 ring_osc_part_c_h5/lb
*542 ring_osc_part_d_h1/_00_
*543 ring_osc_part_d_h1/_01_
*544 ring_osc_part_d_h1/_02_
*545 ring_osc_part_d_h1/_03_
*546 ring_osc_part_d_h1/_04_
*547 ring_osc_part_d_h1/_05_
*548 ring_osc_part_d_h1/and_pd_h1_0\.s\[0\]
*549 ring_osc_part_d_h1/and_pd_h1_0\.s\[1\]
*550 ring_osc_part_d_h1/and_pd_h1_0\.t
*551 ring_osc_part_d_h1/and_pd_h1_0\.x\[0\]
*552 ring_osc_part_d_h1/and_pd_h1_0\.x\[1\]
*553 ring_osc_part_d_h1/and_pd_h1_0\.y
*554 ring_osc_part_d_h1/and_pd_h1_1\.s\[0\]
*555 ring_osc_part_d_h1/and_pd_h1_1\.s\[1\]
*556 ring_osc_part_d_h1/and_pd_h1_1\.t
*557 ring_osc_part_d_h1/and_pd_h1_1\.x\[0\]
*558 ring_osc_part_d_h1/and_pd_h1_1\.x\[1\]
*559 ring_osc_part_d_h1/and_pd_h1_1\.y
*560 ring_osc_part_d_h1/and_pd_h1_2\.s\[0\]
*561 ring_osc_part_d_h1/and_pd_h1_2\.s\[1\]
*562 ring_osc_part_d_h1/and_pd_h1_2\.t
*563 ring_osc_part_d_h1/and_pd_h1_2\.x\[0\]
*564 ring_osc_part_d_h1/and_pd_h1_2\.x\[1\]
*565 ring_osc_part_d_h1/and_pd_h1_2\.y
*566 ring_osc_part_d_h1/i0\.w
*567 ring_osc_part_d_h1/i1\.w
*568 ring_osc_part_d_h1/i2\.w
*569 ring_osc_part_d_h1/lb
*570 ring_osc_part_d_h20/_00_
*571 ring_osc_part_d_h20/_01_
*572 ring_osc_part_d_h20/_02_
*573 ring_osc_part_d_h20/_03_
*574 ring_osc_part_d_h20/_04_
*575 ring_osc_part_d_h20/_05_
*576 ring_osc_part_d_h20/and_pd_h20_0\.s\[0\]
*577 ring_osc_part_d_h20/and_pd_h20_0\.s\[1\]
*578 ring_osc_part_d_h20/and_pd_h20_0\.t
*579 ring_osc_part_d_h20/and_pd_h20_0\.x\[0\]
*580 ring_osc_part_d_h20/and_pd_h20_0\.x\[1\]
*581 ring_osc_part_d_h20/and_pd_h20_0\.y
*582 ring_osc_part_d_h20/and_pd_h20_1\.s\[0\]
*583 ring_osc_part_d_h20/and_pd_h20_1\.s\[1\]
*584 ring_osc_part_d_h20/and_pd_h20_1\.t
*585 ring_osc_part_d_h20/and_pd_h20_1\.x\[0\]
*586 ring_osc_part_d_h20/and_pd_h20_1\.x\[1\]
*587 ring_osc_part_d_h20/and_pd_h20_1\.y
*588 ring_osc_part_d_h20/and_pd_h20_2\.s\[0\]
*589 ring_osc_part_d_h20/and_pd_h20_2\.s\[1\]
*590 ring_osc_part_d_h20/and_pd_h20_2\.t
*591 ring_osc_part_d_h20/and_pd_h20_2\.x\[0\]
*592 ring_osc_part_d_h20/and_pd_h20_2\.x\[1\]
*593 ring_osc_part_d_h20/and_pd_h20_2\.y
*594 ring_osc_part_d_h20/i0\.w\[0\]
*595 ring_osc_part_d_h20/i0\.w\[10\]
*596 ring_osc_part_d_h20/i0\.w\[11\]
*597 ring_osc_part_d_h20/i0\.w\[12\]
*598 ring_osc_part_d_h20/i0\.w\[13\]
*599 ring_osc_part_d_h20/i0\.w\[14\]
*600 ring_osc_part_d_h20/i0\.w\[15\]
*601 ring_osc_part_d_h20/i0\.w\[16\]
*602 ring_osc_part_d_h20/i0\.w\[17\]
*603 ring_osc_part_d_h20/i0\.w\[18\]
*604 ring_osc_part_d_h20/i0\.w\[19\]
*605 ring_osc_part_d_h20/i0\.w\[1\]
*606 ring_osc_part_d_h20/i0\.w\[2\]
*607 ring_osc_part_d_h20/i0\.w\[3\]
*608 ring_osc_part_d_h20/i0\.w\[4\]
*609 ring_osc_part_d_h20/i0\.w\[5\]
*610 ring_osc_part_d_h20/i0\.w\[6\]
*611 ring_osc_part_d_h20/i0\.w\[7\]
*612 ring_osc_part_d_h20/i0\.w\[8\]
*613 ring_osc_part_d_h20/i0\.w\[9\]
*614 ring_osc_part_d_h20/i1\.w\[0\]
*615 ring_osc_part_d_h20/i1\.w\[10\]
*616 ring_osc_part_d_h20/i1\.w\[11\]
*617 ring_osc_part_d_h20/i1\.w\[12\]
*618 ring_osc_part_d_h20/i1\.w\[13\]
*619 ring_osc_part_d_h20/i1\.w\[14\]
*620 ring_osc_part_d_h20/i1\.w\[15\]
*621 ring_osc_part_d_h20/i1\.w\[16\]
*622 ring_osc_part_d_h20/i1\.w\[17\]
*623 ring_osc_part_d_h20/i1\.w\[18\]
*624 ring_osc_part_d_h20/i1\.w\[19\]
*625 ring_osc_part_d_h20/i1\.w\[1\]
*626 ring_osc_part_d_h20/i1\.w\[2\]
*627 ring_osc_part_d_h20/i1\.w\[3\]
*628 ring_osc_part_d_h20/i1\.w\[4\]
*629 ring_osc_part_d_h20/i1\.w\[5\]
*630 ring_osc_part_d_h20/i1\.w\[6\]
*631 ring_osc_part_d_h20/i1\.w\[7\]
*632 ring_osc_part_d_h20/i1\.w\[8\]
*633 ring_osc_part_d_h20/i1\.w\[9\]
*634 ring_osc_part_d_h20/i2\.w\[0\]
*635 ring_osc_part_d_h20/i2\.w\[10\]
*636 ring_osc_part_d_h20/i2\.w\[11\]
*637 ring_osc_part_d_h20/i2\.w\[12\]
*638 ring_osc_part_d_h20/i2\.w\[13\]
*639 ring_osc_part_d_h20/i2\.w\[14\]
*640 ring_osc_part_d_h20/i2\.w\[15\]
*641 ring_osc_part_d_h20/i2\.w\[16\]
*642 ring_osc_part_d_h20/i2\.w\[17\]
*643 ring_osc_part_d_h20/i2\.w\[18\]
*644 ring_osc_part_d_h20/i2\.w\[19\]
*645 ring_osc_part_d_h20/i2\.w\[1\]
*646 ring_osc_part_d_h20/i2\.w\[2\]
*647 ring_osc_part_d_h20/i2\.w\[3\]
*648 ring_osc_part_d_h20/i2\.w\[4\]
*649 ring_osc_part_d_h20/i2\.w\[5\]
*650 ring_osc_part_d_h20/i2\.w\[6\]
*651 ring_osc_part_d_h20/i2\.w\[7\]
*652 ring_osc_part_d_h20/i2\.w\[8\]
*653 ring_osc_part_d_h20/i2\.w\[9\]
*654 ring_osc_part_d_h20/lb
*655 ring_osc_part_d_h5/_00_
*656 ring_osc_part_d_h5/_01_
*657 ring_osc_part_d_h5/_02_
*658 ring_osc_part_d_h5/_03_
*659 ring_osc_part_d_h5/_04_
*660 ring_osc_part_d_h5/_05_
*661 ring_osc_part_d_h5/and_pd_h5_0\.s\[0\]
*662 ring_osc_part_d_h5/and_pd_h5_0\.s\[1\]
*663 ring_osc_part_d_h5/and_pd_h5_0\.t
*664 ring_osc_part_d_h5/and_pd_h5_0\.x\[0\]
*665 ring_osc_part_d_h5/and_pd_h5_0\.x\[1\]
*666 ring_osc_part_d_h5/and_pd_h5_0\.y
*667 ring_osc_part_d_h5/and_pd_h5_1\.s\[0\]
*668 ring_osc_part_d_h5/and_pd_h5_1\.s\[1\]
*669 ring_osc_part_d_h5/and_pd_h5_1\.t
*670 ring_osc_part_d_h5/and_pd_h5_1\.x\[0\]
*671 ring_osc_part_d_h5/and_pd_h5_1\.x\[1\]
*672 ring_osc_part_d_h5/and_pd_h5_1\.y
*673 ring_osc_part_d_h5/and_pd_h5_2\.s\[0\]
*674 ring_osc_part_d_h5/and_pd_h5_2\.s\[1\]
*675 ring_osc_part_d_h5/and_pd_h5_2\.t
*676 ring_osc_part_d_h5/and_pd_h5_2\.x\[0\]
*677 ring_osc_part_d_h5/and_pd_h5_2\.x\[1\]
*678 ring_osc_part_d_h5/and_pd_h5_2\.y
*679 ring_osc_part_d_h5/i0\.w\[0\]
*680 ring_osc_part_d_h5/i0\.w\[1\]
*681 ring_osc_part_d_h5/i0\.w\[2\]
*682 ring_osc_part_d_h5/i0\.w\[3\]
*683 ring_osc_part_d_h5/i0\.w\[4\]
*684 ring_osc_part_d_h5/i1\.w\[0\]
*685 ring_osc_part_d_h5/i1\.w\[1\]
*686 ring_osc_part_d_h5/i1\.w\[2\]
*687 ring_osc_part_d_h5/i1\.w\[3\]
*688 ring_osc_part_d_h5/i1\.w\[4\]
*689 ring_osc_part_d_h5/i2\.w\[0\]
*690 ring_osc_part_d_h5/i2\.w\[1\]
*691 ring_osc_part_d_h5/i2\.w\[2\]
*692 ring_osc_part_d_h5/i2\.w\[3\]
*693 ring_osc_part_d_h5/i2\.w\[4\]
*694 ring_osc_part_d_h5/lb
*695 y\[0\]
*696 y\[10\]
*697 y\[11\]
*698 y\[1\]
*699 y\[2\]
*700 y\[3\]
*701 y\[4\]
*702 y\[5\]
*703 y\[6\]
*704 y\[7\]
*705 y\[8\]
*706 y\[9\]
*707 FILLER_0_0_109
*708 FILLER_0_0_113
*709 FILLER_0_0_125
*710 FILLER_0_0_137
*711 FILLER_0_0_141
*712 FILLER_0_0_15
*713 FILLER_0_0_153
*714 FILLER_0_0_165
*715 FILLER_0_0_169
*716 FILLER_0_0_181
*717 FILLER_0_0_193
*718 FILLER_0_0_197
*719 FILLER_0_0_209
*720 FILLER_0_0_221
*721 FILLER_0_0_225
*722 FILLER_0_0_237
*723 FILLER_0_0_249
*724 FILLER_0_0_253
*725 FILLER_0_0_265
*726 FILLER_0_0_27
*727 FILLER_0_0_277
*728 FILLER_0_0_281
*729 FILLER_0_0_29
*730 FILLER_0_0_293
*731 FILLER_0_0_3
*732 FILLER_0_0_305
*733 FILLER_0_0_309
*734 FILLER_0_0_321
*735 FILLER_0_0_333
*736 FILLER_0_0_41
*737 FILLER_0_0_53
*738 FILLER_0_0_57
*739 FILLER_0_0_69
*740 FILLER_0_0_81
*741 FILLER_0_0_85
*742 FILLER_0_0_97
*743 FILLER_0_10_109
*744 FILLER_0_10_121
*745 FILLER_0_10_133
*746 FILLER_0_10_139
*747 FILLER_0_10_141
*748 FILLER_0_10_15
*749 FILLER_0_10_153
*750 FILLER_0_10_165
*751 FILLER_0_10_177
*752 FILLER_0_10_189
*753 FILLER_0_10_195
*754 FILLER_0_10_197
*755 FILLER_0_10_209
*756 FILLER_0_10_221
*757 FILLER_0_10_233
*758 FILLER_0_10_245
*759 FILLER_0_10_251
*760 FILLER_0_10_253
*761 FILLER_0_10_265
*762 FILLER_0_10_27
*763 FILLER_0_10_277
*764 FILLER_0_10_289
*765 FILLER_0_10_29
*766 FILLER_0_10_3
*767 FILLER_0_10_301
*768 FILLER_0_10_307
*769 FILLER_0_10_309
*770 FILLER_0_10_321
*771 FILLER_0_10_333
*772 FILLER_0_10_41
*773 FILLER_0_10_53
*774 FILLER_0_10_65
*775 FILLER_0_10_77
*776 FILLER_0_10_83
*777 FILLER_0_10_85
*778 FILLER_0_10_97
*779 FILLER_0_11_105
*780 FILLER_0_11_111
*781 FILLER_0_11_113
*782 FILLER_0_11_125
*783 FILLER_0_11_137
*784 FILLER_0_11_149
*785 FILLER_0_11_15
*786 FILLER_0_11_161
*787 FILLER_0_11_167
*788 FILLER_0_11_169
*789 FILLER_0_11_181
*790 FILLER_0_11_193
*791 FILLER_0_11_205
*792 FILLER_0_11_217
*793 FILLER_0_11_223
*794 FILLER_0_11_225
*795 FILLER_0_11_237
*796 FILLER_0_11_249
*797 FILLER_0_11_261
*798 FILLER_0_11_27
*799 FILLER_0_11_273
*800 FILLER_0_11_279
*801 FILLER_0_11_281
*802 FILLER_0_11_293
*803 FILLER_0_11_3
*804 FILLER_0_11_305
*805 FILLER_0_11_317
*806 FILLER_0_11_329
*807 FILLER_0_11_39
*808 FILLER_0_11_51
*809 FILLER_0_11_55
*810 FILLER_0_11_57
*811 FILLER_0_11_69
*812 FILLER_0_11_81
*813 FILLER_0_11_93
*814 FILLER_0_12_109
*815 FILLER_0_12_121
*816 FILLER_0_12_133
*817 FILLER_0_12_139
*818 FILLER_0_12_141
*819 FILLER_0_12_15
*820 FILLER_0_12_153
*821 FILLER_0_12_165
*822 FILLER_0_12_177
*823 FILLER_0_12_189
*824 FILLER_0_12_195
*825 FILLER_0_12_197
*826 FILLER_0_12_209
*827 FILLER_0_12_221
*828 FILLER_0_12_233
*829 FILLER_0_12_245
*830 FILLER_0_12_251
*831 FILLER_0_12_253
*832 FILLER_0_12_265
*833 FILLER_0_12_27
*834 FILLER_0_12_277
*835 FILLER_0_12_289
*836 FILLER_0_12_29
*837 FILLER_0_12_3
*838 FILLER_0_12_301
*839 FILLER_0_12_307
*840 FILLER_0_12_309
*841 FILLER_0_12_321
*842 FILLER_0_12_333
*843 FILLER_0_12_41
*844 FILLER_0_12_53
*845 FILLER_0_12_65
*846 FILLER_0_12_77
*847 FILLER_0_12_83
*848 FILLER_0_12_85
*849 FILLER_0_12_97
*850 FILLER_0_13_105
*851 FILLER_0_13_111
*852 FILLER_0_13_113
*853 FILLER_0_13_125
*854 FILLER_0_13_137
*855 FILLER_0_13_149
*856 FILLER_0_13_15
*857 FILLER_0_13_161
*858 FILLER_0_13_167
*859 FILLER_0_13_169
*860 FILLER_0_13_181
*861 FILLER_0_13_193
*862 FILLER_0_13_205
*863 FILLER_0_13_217
*864 FILLER_0_13_223
*865 FILLER_0_13_225
*866 FILLER_0_13_237
*867 FILLER_0_13_249
*868 FILLER_0_13_261
*869 FILLER_0_13_27
*870 FILLER_0_13_273
*871 FILLER_0_13_279
*872 FILLER_0_13_281
*873 FILLER_0_13_293
*874 FILLER_0_13_3
*875 FILLER_0_13_305
*876 FILLER_0_13_317
*877 FILLER_0_13_329
*878 FILLER_0_13_39
*879 FILLER_0_13_51
*880 FILLER_0_13_55
*881 FILLER_0_13_57
*882 FILLER_0_13_69
*883 FILLER_0_13_81
*884 FILLER_0_13_93
*885 FILLER_0_14_109
*886 FILLER_0_14_121
*887 FILLER_0_14_133
*888 FILLER_0_14_139
*889 FILLER_0_14_141
*890 FILLER_0_14_15
*891 FILLER_0_14_153
*892 FILLER_0_14_165
*893 FILLER_0_14_177
*894 FILLER_0_14_189
*895 FILLER_0_14_195
*896 FILLER_0_14_197
*897 FILLER_0_14_209
*898 FILLER_0_14_221
*899 FILLER_0_14_233
*900 FILLER_0_14_245
*901 FILLER_0_14_251
*902 FILLER_0_14_253
*903 FILLER_0_14_265
*904 FILLER_0_14_27
*905 FILLER_0_14_277
*906 FILLER_0_14_289
*907 FILLER_0_14_29
*908 FILLER_0_14_3
*909 FILLER_0_14_301
*910 FILLER_0_14_307
*911 FILLER_0_14_309
*912 FILLER_0_14_321
*913 FILLER_0_14_333
*914 FILLER_0_14_41
*915 FILLER_0_14_53
*916 FILLER_0_14_65
*917 FILLER_0_14_77
*918 FILLER_0_14_83
*919 FILLER_0_14_85
*920 FILLER_0_14_97
*921 FILLER_0_15_105
*922 FILLER_0_15_111
*923 FILLER_0_15_113
*924 FILLER_0_15_125
*925 FILLER_0_15_137
*926 FILLER_0_15_149
*927 FILLER_0_15_15
*928 FILLER_0_15_161
*929 FILLER_0_15_167
*930 FILLER_0_15_169
*931 FILLER_0_15_181
*932 FILLER_0_15_193
*933 FILLER_0_15_205
*934 FILLER_0_15_217
*935 FILLER_0_15_223
*936 FILLER_0_15_225
*937 FILLER_0_15_237
*938 FILLER_0_15_249
*939 FILLER_0_15_261
*940 FILLER_0_15_27
*941 FILLER_0_15_273
*942 FILLER_0_15_279
*943 FILLER_0_15_281
*944 FILLER_0_15_293
*945 FILLER_0_15_3
*946 FILLER_0_15_305
*947 FILLER_0_15_317
*948 FILLER_0_15_329
*949 FILLER_0_15_39
*950 FILLER_0_15_51
*951 FILLER_0_15_55
*952 FILLER_0_15_57
*953 FILLER_0_15_69
*954 FILLER_0_15_81
*955 FILLER_0_15_93
*956 FILLER_0_16_109
*957 FILLER_0_16_121
*958 FILLER_0_16_133
*959 FILLER_0_16_139
*960 FILLER_0_16_141
*961 FILLER_0_16_15
*962 FILLER_0_16_153
*963 FILLER_0_16_165
*964 FILLER_0_16_177
*965 FILLER_0_16_189
*966 FILLER_0_16_195
*967 FILLER_0_16_197
*968 FILLER_0_16_209
*969 FILLER_0_16_221
*970 FILLER_0_16_233
*971 FILLER_0_16_245
*972 FILLER_0_16_251
*973 FILLER_0_16_253
*974 FILLER_0_16_265
*975 FILLER_0_16_27
*976 FILLER_0_16_277
*977 FILLER_0_16_289
*978 FILLER_0_16_29
*979 FILLER_0_16_3
*980 FILLER_0_16_301
*981 FILLER_0_16_307
*982 FILLER_0_16_309
*983 FILLER_0_16_321
*984 FILLER_0_16_333
*985 FILLER_0_16_41
*986 FILLER_0_16_53
*987 FILLER_0_16_65
*988 FILLER_0_16_77
*989 FILLER_0_16_83
*990 FILLER_0_16_85
*991 FILLER_0_16_97
*992 FILLER_0_17_105
*993 FILLER_0_17_111
*994 FILLER_0_17_113
*995 FILLER_0_17_125
*996 FILLER_0_17_137
*997 FILLER_0_17_149
*998 FILLER_0_17_15
*999 FILLER_0_17_161
*1000 FILLER_0_17_167
*1001 FILLER_0_17_169
*1002 FILLER_0_17_181
*1003 FILLER_0_17_193
*1004 FILLER_0_17_205
*1005 FILLER_0_17_217
*1006 FILLER_0_17_223
*1007 FILLER_0_17_225
*1008 FILLER_0_17_237
*1009 FILLER_0_17_249
*1010 FILLER_0_17_261
*1011 FILLER_0_17_27
*1012 FILLER_0_17_273
*1013 FILLER_0_17_279
*1014 FILLER_0_17_281
*1015 FILLER_0_17_293
*1016 FILLER_0_17_3
*1017 FILLER_0_17_305
*1018 FILLER_0_17_317
*1019 FILLER_0_17_329
*1020 FILLER_0_17_39
*1021 FILLER_0_17_51
*1022 FILLER_0_17_55
*1023 FILLER_0_17_57
*1024 FILLER_0_17_69
*1025 FILLER_0_17_81
*1026 FILLER_0_17_93
*1027 FILLER_0_18_109
*1028 FILLER_0_18_121
*1029 FILLER_0_18_133
*1030 FILLER_0_18_139
*1031 FILLER_0_18_141
*1032 FILLER_0_18_15
*1033 FILLER_0_18_153
*1034 FILLER_0_18_165
*1035 FILLER_0_18_177
*1036 FILLER_0_18_189
*1037 FILLER_0_18_195
*1038 FILLER_0_18_197
*1039 FILLER_0_18_209
*1040 FILLER_0_18_221
*1041 FILLER_0_18_233
*1042 FILLER_0_18_245
*1043 FILLER_0_18_251
*1044 FILLER_0_18_253
*1045 FILLER_0_18_265
*1046 FILLER_0_18_27
*1047 FILLER_0_18_277
*1048 FILLER_0_18_289
*1049 FILLER_0_18_29
*1050 FILLER_0_18_3
*1051 FILLER_0_18_301
*1052 FILLER_0_18_307
*1053 FILLER_0_18_309
*1054 FILLER_0_18_321
*1055 FILLER_0_18_333
*1056 FILLER_0_18_41
*1057 FILLER_0_18_53
*1058 FILLER_0_18_65
*1059 FILLER_0_18_77
*1060 FILLER_0_18_83
*1061 FILLER_0_18_85
*1062 FILLER_0_18_97
*1063 FILLER_0_19_105
*1064 FILLER_0_19_111
*1065 FILLER_0_19_113
*1066 FILLER_0_19_125
*1067 FILLER_0_19_137
*1068 FILLER_0_19_149
*1069 FILLER_0_19_15
*1070 FILLER_0_19_161
*1071 FILLER_0_19_167
*1072 FILLER_0_19_169
*1073 FILLER_0_19_181
*1074 FILLER_0_19_193
*1075 FILLER_0_19_205
*1076 FILLER_0_19_217
*1077 FILLER_0_19_223
*1078 FILLER_0_19_225
*1079 FILLER_0_19_237
*1080 FILLER_0_19_249
*1081 FILLER_0_19_261
*1082 FILLER_0_19_27
*1083 FILLER_0_19_273
*1084 FILLER_0_19_279
*1085 FILLER_0_19_281
*1086 FILLER_0_19_293
*1087 FILLER_0_19_3
*1088 FILLER_0_19_305
*1089 FILLER_0_19_317
*1090 FILLER_0_19_329
*1091 FILLER_0_19_39
*1092 FILLER_0_19_51
*1093 FILLER_0_19_55
*1094 FILLER_0_19_57
*1095 FILLER_0_19_69
*1096 FILLER_0_19_81
*1097 FILLER_0_19_93