*SPEF "ieee 1481-1999"
*DESIGN "tt_um_ericsmi_weste_problem_4_11"
*DATE "07:42:19 Thursday April 18, 2024"
*VENDOR "The OpenROAD Project"
*PROGRAM "OpenROAD"
*VERSION "0889970d1790a2617e69f253221b8bd7626e51dc"
*DESIGN_FLOW "NAME_SCOPE LOCAL" "PIN_CAP NONE"
*DIVIDER /
*DELIMITER :
*BUS_DELIMITER []
*T_UNIT 1 NS
*C_UNIT 1 PF
*R_UNIT 1 OHM
*L_UNIT 1 HENRY

*NAME_MAP
*3 clk
*4 ena
*5 rst_n
*6 ui_in[0]
*7 ui_in[1]
*8 ui_in[2]
*9 ui_in[3]
*10 ui_in[4]
*11 ui_in[5]
*12 ui_in[6]
*13 ui_in[7]
*14 uio_in[0]
*15 uio_in[1]
*16 uio_in[2]
*17 uio_in[3]
*18 uio_in[4]
*19 uio_in[5]
*20 uio_in[6]
*21 uio_in[7]
*22 net78
*23 net79
*24 net80
*25 net81
*26 net82
*27 net83
*28 net84
*29 net85
*30 net86
*31 net87
*32 net88
*33 net89
*34 net90
*35 net91
*36 net92
*37 net93
*38 uo_out[0]
*39 uo_out[1]
*40 uo_out[2]
*41 uo_out[3]
*42 uo_out[4]
*43 uo_out[5]
*44 uo_out[6]
*45 uo_out[7]
*46 _000_
*47 _001_
*48 _002_
*49 _003_
*50 _004_
*51 _005_
*52 _006_
*53 _007_
*54 _008_
*55 _009_
*56 _010_
*57 _011_
*58 _012_
*59 _013_
*60 _014_
*61 _015_
*62 _016_
*63 _017_
*64 _018_
*65 _019_
*66 _020_
*67 _021_
*68 _022_
*69 _023_
*70 _024_
*71 _025_
*72 _026_
*73 _027_
*74 _028_
*75 _029_
*76 _030_
*77 _031_
*78 _032_
*79 _033_
*80 divider\.clk
*81 divider\.counter\[0\]\.d
*82 divider\.counter\[0\]\.q
*83 divider\.counter\[1\]\.d
*84 divider\.counter\[1\]\.q
*85 divider\.counter\[2\]\.d
*86 divider\.counter\[2\]\.q
*87 divider\.counter\[3\]\.d
*88 divider\.counter\[3\]\.q
*89 divider\.overflow
*90 net1
*91 net10
*92 net11
*93 net12
*94 net13
*95 net14
*96 net15
*97 net16
*98 net17
*99 net18
*100 net19
*101 net2
*102 net20
*103 net21
*104 net22
*105 net23
*106 net24
*107 net25
*108 net26
*109 net27
*110 net28
*111 net29
*112 net3
*113 net30
*114 net31
*115 net32
*116 net33
*117 net34
*118 net35
*119 net36
*120 net37
*121 net38
*122 net39
*123 net4
*124 net40
*125 net41
*126 net42
*127 net43
*128 net44
*129 net45
*130 net46
*131 net47
*132 net48
*133 net49
*134 net5
*135 net50
*136 net51
*137 net52
*138 net53
*139 net54
*140 net55
*141 net56
*142 net57
*143 net58
*144 net59
*145 net6
*146 net60
*147 net61
*148 net62
*149 net63
*150 net64
*151 net65
*152 net66
*153 net67
*154 net68
*155 net69
*156 net7
*157 net70
*158 net71
*159 net72
*160 net73
*161 net74
*162 net75
*163 net76
*164 net77
*165 net8
*166 net9
*167 net94
*168 ring_osc_part_a_h1/_00_
*169 ring_osc_part_a_h1/_01_
*170 ring_osc_part_a_h1/_02_
*171 ring_osc_part_a_h1/_03_
*172 ring_osc_part_a_h1/_04_
*173 ring_osc_part_a_h1/and_pa_h1_0\.x
*174 ring_osc_part_a_h1/and_pa_h1_0\.y
*175 ring_osc_part_a_h1/and_pa_h1_1\.x
*176 ring_osc_part_a_h1/and_pa_h1_1\.y
*177 ring_osc_part_a_h1/and_pa_h1_2\.x
*178 ring_osc_part_a_h1/and_pa_h1_2\.y
*179 ring_osc_part_a_h1/i0\.w
*180 ring_osc_part_a_h1/i1\.w
*181 ring_osc_part_a_h1/i2\.w
*182 ring_osc_part_a_h1/lb
*183 ring_osc_part_a_h20/_00_
*184 ring_osc_part_a_h20/_01_
*185 ring_osc_part_a_h20/_02_
*186 ring_osc_part_a_h20/_03_
*187 ring_osc_part_a_h20/_04_
*188 ring_osc_part_a_h20/and_pa_h20_0\.x
*189 ring_osc_part_a_h20/and_pa_h20_0\.y
*190 ring_osc_part_a_h20/and_pa_h20_1\.x
*191 ring_osc_part_a_h20/and_pa_h20_1\.y
*192 ring_osc_part_a_h20/and_pa_h20_2\.x
*193 ring_osc_part_a_h20/and_pa_h20_2\.y
*194 ring_osc_part_a_h20/i0\.w\[0\]
*195 ring_osc_part_a_h20/i0\.w\[10\]
*196 ring_osc_part_a_h20/i0\.w\[11\]
*197 ring_osc_part_a_h20/i0\.w\[12\]
*198 ring_osc_part_a_h20/i0\.w\[13\]
*199 ring_osc_part_a_h20/i0\.w\[14\]
*200 ring_osc_part_a_h20/i0\.w\[15\]
*201 ring_osc_part_a_h20/i0\.w\[16\]
*202 ring_osc_part_a_h20/i0\.w\[17\]
*203 ring_osc_part_a_h20/i0\.w\[18\]
*204 ring_osc_part_a_h20/i0\.w\[19\]
*205 ring_osc_part_a_h20/i0\.w\[1\]
*206 ring_osc_part_a_h20/i0\.w\[2\]
*207 ring_osc_part_a_h20/i0\.w\[3\]
*208 ring_osc_part_a_h20/i0\.w\[4\]
*209 ring_osc_part_a_h20/i0\.w\[5\]
*210 ring_osc_part_a_h20/i0\.w\[6\]
*211 ring_osc_part_a_h20/i0\.w\[7\]
*212 ring_osc_part_a_h20/i0\.w\[8\]
*213 ring_osc_part_a_h20/i0\.w\[9\]
*214 ring_osc_part_a_h20/i1\.w\[0\]
*215 ring_osc_part_a_h20/i1\.w\[10\]
*216 ring_osc_part_a_h20/i1\.w\[11\]
*217 ring_osc_part_a_h20/i1\.w\[12\]
*218 ring_osc_part_a_h20/i1\.w\[13\]
*219 ring_osc_part_a_h20/i1\.w\[14\]
*220 ring_osc_part_a_h20/i1\.w\[15\]
*221 ring_osc_part_a_h20/i1\.w\[16\]
*222 ring_osc_part_a_h20/i1\.w\[17\]
*223 ring_osc_part_a_h20/i1\.w\[18\]
*224 ring_osc_part_a_h20/i1\.w\[19\]
*225 ring_osc_part_a_h20/i1\.w\[1\]
*226 ring_osc_part_a_h20/i1\.w\[2\]
*227 ring_osc_part_a_h20/i1\.w\[3\]
*228 ring_osc_part_a_h20/i1\.w\[4\]
*229 ring_osc_part_a_h20/i1\.w\[5\]
*230 ring_osc_part_a_h20/i1\.w\[6\]
*231 ring_osc_part_a_h20/i1\.w\[7\]
*232 ring_osc_part_a_h20/i1\.w\[8\]
*233 ring_osc_part_a_h20/i1\.w\[9\]
*234 ring_osc_part_a_h20/i2\.w\[0\]
*235 ring_osc_part_a_h20/i2\.w\[10\]
*236 ring_osc_part_a_h20/i2\.w\[11\]
*237 ring_osc_part_a_h20/i2\.w\[12\]
*238 ring_osc_part_a_h20/i2\.w\[13\]
*239 ring_osc_part_a_h20/i2\.w\[14\]
*240 ring_osc_part_a_h20/i2\.w\[15\]
*241 ring_osc_part_a_h20/i2\.w\[16\]
*242 ring_osc_part_a_h20/i2\.w\[17\]
*243 ring_osc_part_a_h20/i2\.w\[18\]
*244 ring_osc_part_a_h20/i2\.w\[19\]
*245 ring_osc_part_a_h20/i2\.w\[1\]
*246 ring_osc_part_a_h20/i2\.w\[2\]
*247 ring_osc_part_a_h20/i2\.w\[3\]
*248 ring_osc_part_a_h20/i2\.w\[4\]
*249 ring_osc_part_a_h20/i2\.w\[5\]
*250 ring_osc_part_a_h20/i2\.w\[6\]
*251 ring_osc_part_a_h20/i2\.w\[7\]
*252 ring_osc_part_a_h20/i2\.w\[8\]
*253 ring_osc_part_a_h20/i2\.w\[9\]
*254 ring_osc_part_a_h20/lb
*255 ring_osc_part_a_h5/_00_
*256 ring_osc_part_a_h5/_01_
*257 ring_osc_part_a_h5/_02_
*258 ring_osc_part_a_h5/_03_
*259 ring_osc_part_a_h5/_04_
*260 ring_osc_part_a_h5/and_pa_h5_0\.x
*261 ring_osc_part_a_h5/and_pa_h5_0\.y
*262 ring_osc_part_a_h5/and_pa_h5_1\.x
*263 ring_osc_part_a_h5/and_pa_h5_1\.y
*264 ring_osc_part_a_h5/and_pa_h5_2\.x
*265 ring_osc_part_a_h5/and_pa_h5_2\.y
*266 ring_osc_part_a_h5/i0\.w\[0\]
*267 ring_osc_part_a_h5/i0\.w\[1\]
*268 ring_osc_part_a_h5/i0\.w\[2\]
*269 ring_osc_part_a_h5/i0\.w\[3\]
*270 ring_osc_part_a_h5/i0\.w\[4\]
*271 ring_osc_part_a_h5/i1\.w\[0\]
*272 ring_osc_part_a_h5/i1\.w\[1\]
*273 ring_osc_part_a_h5/i1\.w\[2\]
*274 ring_osc_part_a_h5/i1\.w\[3\]
*275 ring_osc_part_a_h5/i1\.w\[4\]
*276 ring_osc_part_a_h5/i2\.w\[0\]
*277 ring_osc_part_a_h5/i2\.w\[1\]
*278 ring_osc_part_a_h5/i2\.w\[2\]
*279 ring_osc_part_a_h5/i2\.w\[3\]
*280 ring_osc_part_a_h5/i2\.w\[4\]
*281 ring_osc_part_a_h5/lb
*282 ring_osc_part_b_h1/_00_
*283 ring_osc_part_b_h1/_01_
*284 ring_osc_part_b_h1/_02_
*285 ring_osc_part_b_h1/_03_
*286 ring_osc_part_b_h1/_04_
*287 ring_osc_part_b_h1/and_pb_h1_0\.x\[0\]
*288 ring_osc_part_b_h1/and_pb_h1_0\.x\[1\]
*289 ring_osc_part_b_h1/and_pb_h1_0\.y
*290 ring_osc_part_b_h1/and_pb_h1_1\.x\[0\]
*291 ring_osc_part_b_h1/and_pb_h1_1\.x\[1\]
*292 ring_osc_part_b_h1/and_pb_h1_1\.y
*293 ring_osc_part_b_h1/and_pb_h1_2\.x\[0\]
*294 ring_osc_part_b_h1/and_pb_h1_2\.x\[1\]
*295 ring_osc_part_b_h1/and_pb_h1_2\.y
*296 ring_osc_part_b_h1/i0\.w
*297 ring_osc_part_b_h1/i1\.w
*298 ring_osc_part_b_h1/i2\.w
*299 ring_osc_part_b_h1/lb
*300 ring_osc_part_b_h20/_00_
*301 ring_osc_part_b_h20/_01_
*302 ring_osc_part_b_h20/_02_
*303 ring_osc_part_b_h20/_03_
*304 ring_osc_part_b_h20/_04_
*305 ring_osc_part_b_h20/and_pb_h20_0\.x\[0\]
*306 ring_osc_part_b_h20/and_pb_h20_0\.x\[1\]
*307 ring_osc_part_b_h20/and_pb_h20_0\.y
*308 ring_osc_part_b_h20/and_pb_h20_1\.x\[0\]
*309 ring_osc_part_b_h20/and_pb_h20_1\.x\[1\]
*310 ring_osc_part_b_h20/and_pb_h20_1\.y
*311 ring_osc_part_b_h20/and_pb_h20_2\.x\[0\]
*312 ring_osc_part_b_h20/and_pb_h20_2\.x\[1\]
*313 ring_osc_part_b_h20/and_pb_h20_2\.y
*314 ring_osc_part_b_h20/i0\.w\[0\]
*315 ring_osc_part_b_h20/i0\.w\[10\]
*316 ring_osc_part_b_h20/i0\.w\[11\]
*317 ring_osc_part_b_h20/i0\.w\[12\]
*318 ring_osc_part_b_h20/i0\.w\[13\]
*319 ring_osc_part_b_h20/i0\.w\[14\]
*320 ring_osc_part_b_h20/i0\.w\[15\]
*321 ring_osc_part_b_h20/i0\.w\[16\]
*322 ring_osc_part_b_h20/i0\.w\[17\]
*323 ring_osc_part_b_h20/i0\.w\[18\]
*324 ring_osc_part_b_h20/i0\.w\[19\]
*325 ring_osc_part_b_h20/i0\.w\[1\]
*326 ring_osc_part_b_h20/i0\.w\[2\]
*327 ring_osc_part_b_h20/i0\.w\[3\]
*328 ring_osc_part_b_h20/i0\.w\[4\]
*329 ring_osc_part_b_h20/i0\.w\[5\]
*330 ring_osc_part_b_h20/i0\.w\[6\]
*331 ring_osc_part_b_h20/i0\.w\[7\]
*332 ring_osc_part_b_h20/i0\.w\[8\]
*333 ring_osc_part_b_h20/i0\.w\[9\]
*334 ring_osc_part_b_h20/i1\.w\[0\]
*335 ring_osc_part_b_h20/i1\.w\[10\]
*336 ring_osc_part_b_h20/i1\.w\[11\]
*337 ring_osc_part_b_h20/i1\.w\[12\]
*338 ring_osc_part_b_h20/i1\.w\[13\]
*339 ring_osc_part_b_h20/i1\.w\[14\]
*340 ring_osc_part_b_h20/i1\.w\[15\]
*341 ring_osc_part_b_h20/i1\.w\[16\]
*342 ring_osc_part_b_h20/i1\.w\[17\]
*343 ring_osc_part_b_h20/i1\.w\[18\]
*344 ring_osc_part_b_h20/i1\.w\[19\]
*345 ring_osc_part_b_h20/i1\.w\[1\]
*346 ring_osc_part_b_h20/i1\.w\[2\]
*347 ring_osc_part_b_h20/i1\.w\[3\]
*348 ring_osc_part_b_h20/i1\.w\[4\]
*349 ring_osc_part_b_h20/i1\.w\[5\]
*350 ring_osc_part_b_h20/i1\.w\[6\]
*351 ring_osc_part_b_h20/i1\.w\[7\]
*352 ring_osc_part_b_h20/i1\.w\[8\]
*353 ring_osc_part_b_h20/i1\.w\[9\]
*354 ring_osc_part_b_h20/i2\.w\[0\]
*355 ring_osc_part_b_h20/i2\.w\[10\]
*356 ring_osc_part_b_h20/i2\.w\[11\]
*357 ring_osc_part_b_h20/i2\.w\[12\]
*358 ring_osc_part_b_h20/i2\.w\[13\]
*359 ring_osc_part_b_h20/i2\.w\[14\]
*360 ring_osc_part_b_h20/i2\.w\[15\]
*361 ring_osc_part_b_h20/i2\.w\[16\]
*362 ring_osc_part_b_h20/i2\.w\[17\]
*363 ring_osc_part_b_h20/i2\.w\[18\]
*364 ring_osc_part_b_h20/i2\.w\[19\]
*365 ring_osc_part_b_h20/i2\.w\[1\]
*366 ring_osc_part_b_h20/i2\.w\[2\]
*367 ring_osc_part_b_h20/i2\.w\[3\]
*368 ring_osc_part_b_h20/i2\.w\[4\]
*369 ring_osc_part_b_h20/i2\.w\[5\]
*370 ring_osc_part_b_h20/i2\.w\[6\]
*371 ring_osc_part_b_h20/i2\.w\[7\]
*372 ring_osc_part_b_h20/i2\.w\[8\]
*373 ring_osc_part_b_h20/i2\.w\[9\]
*374 ring_osc_part_b_h20/lb
*375 ring_osc_part_b_h5/_00_
*376 ring_osc_part_b_h5/_01_
*377 ring_osc_part_b_h5/_02_
*378 ring_osc_part_b_h5/_03_
*379 ring_osc_part_b_h5/_04_
*380 ring_osc_part_b_h5/and_pb_h5_0\.x\[0\]
*381 ring_osc_part_b_h5/and_pb_h5_0\.x\[1\]
*382 ring_osc_part_b_h5/and_pb_h5_0\.y
*383 ring_osc_part_b_h5/and_pb_h5_1\.x\[0\]
*384 ring_osc_part_b_h5/and_pb_h5_1\.x\[1\]
*385 ring_osc_part_b_h5/and_pb_h5_1\.y
*386 ring_osc_part_b_h5/and_pb_h5_2\.x\[0\]
*387 ring_osc_part_b_h5/and_pb_h5_2\.x\[1\]
*388 ring_osc_part_b_h5/and_pb_h5_2\.y
*389 ring_osc_part_b_h5/i0\.w\[0\]
*390 ring_osc_part_b_h5/i0\.w\[1\]
*391 ring_osc_part_b_h5/i0\.w\[2\]
*392 ring_osc_part_b_h5/i0\.w\[3\]
*393 ring_osc_part_b_h5/i0\.w\[4\]
*394 ring_osc_part_b_h5/i1\.w\[0\]
*395 ring_osc_part_b_h5/i1\.w\[1\]
*396 ring_osc_part_b_h5/i1\.w\[2\]
*397 ring_osc_part_b_h5/i1\.w\[3\]
*398 ring_osc_part_b_h5/i1\.w\[4\]
*399 ring_osc_part_b_h5/i2\.w\[0\]
*400 ring_osc_part_b_h5/i2\.w\[1\]
*401 ring_osc_part_b_h5/i2\.w\[2\]
*402 ring_osc_part_b_h5/i2\.w\[3\]
*403 ring_osc_part_b_h5/i2\.w\[4\]
*404 ring_osc_part_b_h5/lb
*405 ring_osc_part_c_h1/_00_
*406 ring_osc_part_c_h1/_01_
*407 ring_osc_part_c_h1/_02_
*408 ring_osc_part_c_h1/_03_
*409 ring_osc_part_c_h1/_04_
*410 ring_osc_part_c_h1/and_pc_h1_0\.x\[0\]
*411 ring_osc_part_c_h1/and_pc_h1_0\.x\[1\]
*412 ring_osc_part_c_h1/and_pc_h1_0\.x\[2\]
*413 ring_osc_part_c_h1/and_pc_h1_0\.y
*414 ring_osc_part_c_h1/and_pc_h1_1\.x\[0\]
*415 ring_osc_part_c_h1/and_pc_h1_1\.x\[1\]
*416 ring_osc_part_c_h1/and_pc_h1_1\.x\[2\]
*417 ring_osc_part_c_h1/and_pc_h1_1\.y
*418 ring_osc_part_c_h1/and_pc_h1_2\.x\[0\]
*419 ring_osc_part_c_h1/and_pc_h1_2\.x\[1\]
*420 ring_osc_part_c_h1/and_pc_h1_2\.x\[2\]
*421 ring_osc_part_c_h1/and_pc_h1_2\.y
*422 ring_osc_part_c_h1/i0\.w
*423 ring_osc_part_c_h1/i1\.w
*424 ring_osc_part_c_h1/i2\.w
*425 ring_osc_part_c_h1/lb
*426 ring_osc_part_c_h20/_00_
*427 ring_osc_part_c_h20/_01_
*428 ring_osc_part_c_h20/_02_
*429 ring_osc_part_c_h20/_03_
*430 ring_osc_part_c_h20/_04_
*431 ring_osc_part_c_h20/and_pc_h20_0\.x\[0\]
*432 ring_osc_part_c_h20/and_pc_h20_0\.x\[1\]
*433 ring_osc_part_c_h20/and_pc_h20_0\.x\[2\]
*434 ring_osc_part_c_h20/and_pc_h20_0\.y
*435 ring_osc_part_c_h20/and_pc_h20_1\.x\[0\]
*436 ring_osc_part_c_h20/and_pc_h20_1\.x\[1\]
*437 ring_osc_part_c_h20/and_pc_h20_1\.x\[2\]
*438 ring_osc_part_c_h20/and_pc_h20_1\.y
*439 ring_osc_part_c_h20/and_pc_h20_2\.x\[0\]
*440 ring_osc_part_c_h20/and_pc_h20_2\.x\[1\]
*441 ring_osc_part_c_h20/and_pc_h20_2\.x\[2\]
*442 ring_osc_part_c_h20/and_pc_h20_2\.y
*443 ring_osc_part_c_h20/i0\.w\[0\]
*444 ring_osc_part_c_h20/i0\.w\[10\]
*445 ring_osc_part_c_h20/i0\.w\[11\]
*446 ring_osc_part_c_h20/i0\.w\[12\]
*447 ring_osc_part_c_h20/i0\.w\[13\]
*448 ring_osc_part_c_h20/i0\.w\[14\]
*449 ring_osc_part_c_h20/i0\.w\[15\]
*450 ring_osc_part_c_h20/i0\.w\[16\]
*451 ring_osc_part_c_h20/i0\.w\[17\]
*452 ring_osc_part_c_h20/i0\.w\[18\]
*453 ring_osc_part_c_h20/i0\.w\[19\]
*454 ring_osc_part_c_h20/i0\.w\[1\]
*455 ring_osc_part_c_h20/i0\.w\[2\]
*456 ring_osc_part_c_h20/i0\.w\[3\]
*457 ring_osc_part_c_h20/i0\.w\[4\]
*458 ring_osc_part_c_h20/i0\.w\[5\]
*459 ring_osc_part_c_h20/i0\.w\[6\]
*460 ring_osc_part_c_h20/i0\.w\[7\]
*461 ring_osc_part_c_h20/i0\.w\[8\]
*462 ring_osc_part_c_h20/i0\.w\[9\]
*463 ring_osc_part_c_h20/i1\.w\[0\]
*464 ring_osc_part_c_h20/i1\.w\[10\]
*465 ring_osc_part_c_h20/i1\.w\[11\]
*466 ring_osc_part_c_h20/i1\.w\[12\]
*467 ring_osc_part_c_h20/i1\.w\[13\]
*468 ring_osc_part_c_h20/i1\.w\[14\]
*469 ring_osc_part_c_h20/i1\.w\[15\]
*470 ring_osc_part_c_h20/i1\.w\[16\]
*471 ring_osc_part_c_h20/i1\.w\[17\]
*472 ring_osc_part_c_h20/i1\.w\[18\]
*473 ring_osc_part_c_h20/i1\.w\[19\]
*474 ring_osc_part_c_h20/i1\.w\[1\]
*475 ring_osc_part_c_h20/i1\.w\[2\]
*476 ring_osc_part_c_h20/i1\.w\[3\]
*477 ring_osc_part_c_h20/i1\.w\[4\]
*478 ring_osc_part_c_h20/i1\.w\[5\]
*479 ring_osc_part_c_h20/i1\.w\[6\]
*480 ring_osc_part_c_h20/i1\.w\[7\]
*481 ring_osc_part_c_h20/i1\.w\[8\]
*482 ring_osc_part_c_h20/i1\.w\[9\]
*483 ring_osc_part_c_h20/i2\.w\[0\]
*484 ring_osc_part_c_h20/i2\.w\[10\]
*485 ring_osc_part_c_h20/i2\.w\[11\]
*486 ring_osc_part_c_h20/i2\.w\[12\]
*487 ring_osc_part_c_h20/i2\.w\[13\]
*488 ring_osc_part_c_h20/i2\.w\[14\]
*489 ring_osc_part_c_h20/i2\.w\[15\]
*490 ring_osc_part_c_h20/i2\.w\[16\]
*491 ring_osc_part_c_h20/i2\.w\[17\]
*492 ring_osc_part_c_h20/i2\.w\[18\]
*493 ring_osc_part_c_h20/i2\.w\[19\]
*494 ring_osc_part_c_h20/i2\.w\[1\]
*495 ring_osc_part_c_h20/i2\.w\[2\]
*496 ring_osc_part_c_h20/i2\.w\[3\]
*497 ring_osc_part_c_h20/i2\.w\[4\]
*498 ring_osc_part_c_h20/i2\.w\[5\]
*499 ring_osc_part_c_h20/i2\.w\[6\]
*500 ring_osc_part_c_h20/i2\.w\[7\]
*501 ring_osc_part_c_h20/i2\.w\[8\]
*502 ring_osc_part_c_h20/i2\.w\[9\]
*503 ring_osc_part_c_h20/lb
*504 ring_osc_part_c_h5/_00_
*505 ring_osc_part_c_h5/_01_
*506 ring_osc_part_c_h5/_02_
*507 ring_osc_part_c_h5/_03_
*508 ring_osc_part_c_h5/_04_
*509 ring_osc_part_c_h5/and_pc_h5_0\.x\[0\]
*510 ring_osc_part_c_h5/and_pc_h5_0\.x\[1\]
*511 ring_osc_part_c_h5/and_pc_h5_0\.x\[2\]
*512 ring_osc_part_c_h5/and_pc_h5_0\.y
*513 ring_osc_part_c_h5/and_pc_h5_1\.x\[0\]
*514 ring_osc_part_c_h5/and_pc_h5_1\.x\[1\]
*515 ring_osc_part_c_h5/and_pc_h5_1\.x\[2\]
*516 ring_osc_part_c_h5/and_pc_h5_1\.y
*517 ring_osc_part_c_h5/and_pc_h5_2\.x\[0\]
*518 ring_osc_part_c_h5/and_pc_h5_2\.x\[1\]
*519 ring_osc_part_c_h5/and_pc_h5_2\.x\[2\]
*520 ring_osc_part_c_h5/and_pc_h5_2\.y
*521 ring_osc_part_c_h5/i0\.w\[0\]
*522 ring_osc_part_c_h5/i0\.w\[1\]
*523 ring_osc_part_c_h5/i0\.w\[2\]
*524 ring_osc_part_c_h5/i0\.w\[3\]
*525 ring_osc_part_c_h5/i0\.w\[4\]
*526 ring_osc_part_c_h5/i1\.w\[0\]
*527 ring_osc_part_c_h5/i1\.w\[1\]
*528 ring_osc_part_c_h5/i1\.w\[2\]
*529 ring_osc_part_c_h5/i1\.w\[3\]
*530 ring_osc_part_c_h5/i1\.w\[4\]
*531 ring_osc_part_c_h5/i2\.w\[0\]
*532 ring_osc_part_c_h5/i2\.w\[1\]
*533 ring_osc_part_c_h5/i2\.w\[2\]
*534 ring_osc_part_c_h5/i2\.w\[3\]
*535 ring_osc_part_c_h5/i2\.w\[4\]
*536 ring_osc_part_c_h5/lb
*537 ring_osc_part_d_h1/_00_
*538 ring_osc_part_d_h1/_01_
*539 ring_osc_part_d_h1/_02_
*540 ring_osc_part_d_h1/_03_
*541 ring_osc_part_d_h1/_04_
*542 ring_osc_part_d_h1/and_pd_h1_0\.s\[0\]
*543 ring_osc_part_d_h1/and_pd_h1_0\.s\[1\]
*544 ring_osc_part_d_h1/and_pd_h1_0\.t
*545 ring_osc_part_d_h1/and_pd_h1_0\.x\[0\]
*546 ring_osc_part_d_h1/and_pd_h1_0\.x\[1\]
*547 ring_osc_part_d_h1/and_pd_h1_0\.y
*548 ring_osc_part_d_h1/and_pd_h1_1\.s\[0\]
*549 ring_osc_part_d_h1/and_pd_h1_1\.s\[1\]
*550 ring_osc_part_d_h1/and_pd_h1_1\.t
*551 ring_osc_part_d_h1/and_pd_h1_1\.x\[0\]
*552 ring_osc_part_d_h1/and_pd_h1_1\.x\[1\]
*553 ring_osc_part_d_h1/and_pd_h1_1\.y
*554 ring_osc_part_d_h1/and_pd_h1_2\.s\[0\]
*555 ring_osc_part_d_h1/and_pd_h1_2\.s\[1\]
*556 ring_osc_part_d_h1/and_pd_h1_2\.t
*557 ring_osc_part_d_h1/and_pd_h1_2\.x\[0\]
*558 ring_osc_part_d_h1/and_pd_h1_2\.x\[1\]
*559 ring_osc_part_d_h1/and_pd_h1_2\.y
*560 ring_osc_part_d_h1/i0\.w
*561 ring_osc_part_d_h1/i1\.w
*562 ring_osc_part_d_h1/i2\.w
*563 ring_osc_part_d_h1/lb
*564 ring_osc_part_d_h20/_00_
*565 ring_osc_part_d_h20/_01_
*566 ring_osc_part_d_h20/_02_
*567 ring_osc_part_d_h20/_03_
*568 ring_osc_part_d_h20/_04_
*569 ring_osc_part_d_h20/and_pd_h20_0\.s\[0\]
*570 ring_osc_part_d_h20/and_pd_h20_0\.s\[1\]
*571 ring_osc_part_d_h20/and_pd_h20_0\.t
*572 ring_osc_part_d_h20/and_pd_h20_0\.x\[0\]
*573 ring_osc_part_d_h20/and_pd_h20_0\.x\[1\]
*574 ring_osc_part_d_h20/and_pd_h20_0\.y
*575 ring_osc_part_d_h20/and_pd_h20_1\.s\[0\]
*576 ring_osc_part_d_h20/and_pd_h20_1\.s\[1\]
*577 ring_osc_part_d_h20/and_pd_h20_1\.t
*578 ring_osc_part_d_h20/and_pd_h20_1\.x\[0\]
*579 ring_osc_part_d_h20/and_pd_h20_1\.x\[1\]
*580 ring_osc_part_d_h20/and_pd_h20_1\.y
*581 ring_osc_part_d_h20/and_pd_h20_2\.s\[0\]
*582 ring_osc_part_d_h20/and_pd_h20_2\.s\[1\]
*583 ring_osc_part_d_h20/and_pd_h20_2\.t
*584 ring_osc_part_d_h20/and_pd_h20_2\.x\[0\]
*585 ring_osc_part_d_h20/and_pd_h20_2\.x\[1\]
*586 ring_osc_part_d_h20/and_pd_h20_2\.y
*587 ring_osc_part_d_h20/i0\.w\[0\]
*588 ring_osc_part_d_h20/i0\.w\[10\]
*589 ring_osc_part_d_h20/i0\.w\[11\]
*590 ring_osc_part_d_h20/i0\.w\[12\]
*591 ring_osc_part_d_h20/i0\.w\[13\]
*592 ring_osc_part_d_h20/i0\.w\[14\]
*593 ring_osc_part_d_h20/i0\.w\[15\]
*594 ring_osc_part_d_h20/i0\.w\[16\]
*595 ring_osc_part_d_h20/i0\.w\[17\]
*596 ring_osc_part_d_h20/i0\.w\[18\]
*597 ring_osc_part_d_h20/i0\.w\[19\]
*598 ring_osc_part_d_h20/i0\.w\[1\]
*599 ring_osc_part_d_h20/i0\.w\[2\]
*600 ring_osc_part_d_h20/i0\.w\[3\]
*601 ring_osc_part_d_h20/i0\.w\[4\]
*602 ring_osc_part_d_h20/i0\.w\[5\]
*603 ring_osc_part_d_h20/i0\.w\[6\]
*604 ring_osc_part_d_h20/i0\.w\[7\]
*605 ring_osc_part_d_h20/i0\.w\[8\]
*606 ring_osc_part_d_h20/i0\.w\[9\]
*607 ring_osc_part_d_h20/i1\.w\[0\]
*608 ring_osc_part_d_h20/i1\.w\[10\]
*609 ring_osc_part_d_h20/i1\.w\[11\]
*610 ring_osc_part_d_h20/i1\.w\[12\]
*611 ring_osc_part_d_h20/i1\.w\[13\]
*612 ring_osc_part_d_h20/i1\.w\[14\]
*613 ring_osc_part_d_h20/i1\.w\[15\]
*614 ring_osc_part_d_h20/i1\.w\[16\]
*615 ring_osc_part_d_h20/i1\.w\[17\]
*616 ring_osc_part_d_h20/i1\.w\[18\]
*617 ring_osc_part_d_h20/i1\.w\[19\]
*618 ring_osc_part_d_h20/i1\.w\[1\]
*619 ring_osc_part_d_h20/i1\.w\[2\]
*620 ring_osc_part_d_h20/i1\.w\[3\]
*621 ring_osc_part_d_h20/i1\.w\[4\]
*622 ring_osc_part_d_h20/i1\.w\[5\]
*623 ring_osc_part_d_h20/i1\.w\[6\]
*624 ring_osc_part_d_h20/i1\.w\[7\]
*625 ring_osc_part_d_h20/i1\.w\[8\]
*626 ring_osc_part_d_h20/i1\.w\[9\]
*627 ring_osc_part_d_h20/i2\.w\[0\]
*628 ring_osc_part_d_h20/i2\.w\[10\]
*629 ring_osc_part_d_h20/i2\.w\[11\]
*630 ring_osc_part_d_h20/i2\.w\[12\]
*631 ring_osc_part_d_h20/i2\.w\[13\]
*632 ring_osc_part_d_h20/i2\.w\[14\]
*633 ring_osc_part_d_h20/i2\.w\[15\]
*634 ring_osc_part_d_h20/i2\.w\[16\]
*635 ring_osc_part_d_h20/i2\.w\[17\]
*636 ring_osc_part_d_h20/i2\.w\[18\]
*637 ring_osc_part_d_h20/i2\.w\[19\]
*638 ring_osc_part_d_h20/i2\.w\[1\]
*639 ring_osc_part_d_h20/i2\.w\[2\]
*640 ring_osc_part_d_h20/i2\.w\[3\]
*641 ring_osc_part_d_h20/i2\.w\[4\]
*642 ring_osc_part_d_h20/i2\.w\[5\]
*643 ring_osc_part_d_h20/i2\.w\[6\]
*644 ring_osc_part_d_h20/i2\.w\[7\]
*645 ring_osc_part_d_h20/i2\.w\[8\]
*646 ring_osc_part_d_h20/i2\.w\[9\]
*647 ring_osc_part_d_h20/lb
*648 ring_osc_part_d_h5/_00_
*649 ring_osc_part_d_h5/_01_
*650 ring_osc_part_d_h5/_02_
*651 ring_osc_part_d_h5/_03_
*652 ring_osc_part_d_h5/_04_
*653 ring_osc_part_d_h5/and_pd_h5_0\.s\[0\]
*654 ring_osc_part_d_h5/and_pd_h5_0\.s\[1\]
*655 ring_osc_part_d_h5/and_pd_h5_0\.t
*656 ring_osc_part_d_h5/and_pd_h5_0\.x\[0\]
*657 ring_osc_part_d_h5/and_pd_h5_0\.x\[1\]
*658 ring_osc_part_d_h5/and_pd_h5_0\.y
*659 ring_osc_part_d_h5/and_pd_h5_1\.s\[0\]
*660 ring_osc_part_d_h5/and_pd_h5_1\.s\[1\]
*661 ring_osc_part_d_h5/and_pd_h5_1\.t
*662 ring_osc_part_d_h5/and_pd_h5_1\.x\[0\]
*663 ring_osc_part_d_h5/and_pd_h5_1\.x\[1\]
*664 ring_osc_part_d_h5/and_pd_h5_1\.y
*665 ring_osc_part_d_h5/and_pd_h5_2\.s\[0\]
*666 ring_osc_part_d_h5/and_pd_h5_2\.s\[1\]
*667 ring_osc_part_d_h5/and_pd_h5_2\.t
*668 ring_osc_part_d_h5/and_pd_h5_2\.x\[0\]
*669 ring_osc_part_d_h5/and_pd_h5_2\.x\[1\]
*670 ring_osc_part_d_h5/and_pd_h5_2\.y
*671 ring_osc_part_d_h5/i0\.w\[0\]
*672 ring_osc_part_d_h5/i0\.w\[1\]
*673 ring_osc_part_d_h5/i0\.w\[2\]
*674 ring_osc_part_d_h5/i0\.w\[3\]
*675 ring_osc_part_d_h5/i0\.w\[4\]
*676 ring_osc_part_d_h5/i1\.w\[0\]
*677 ring_osc_part_d_h5/i1\.w\[1\]
*678 ring_osc_part_d_h5/i1\.w\[2\]
*679 ring_osc_part_d_h5/i1\.w\[3\]
*680 ring_osc_part_d_h5/i1\.w\[4\]
*681 ring_osc_part_d_h5/i2\.w\[0\]
*682 ring_osc_part_d_h5/i2\.w\[1\]
*683 ring_osc_part_d_h5/i2\.w\[2\]
*684 ring_osc_part_d_h5/i2\.w\[3\]
*685 ring_osc_part_d_h5/i2\.w\[4\]
*686 ring_osc_part_d_h5/lb
*687 y\[0\]
*688 y\[10\]
*689 y\[11\]
*690 y\[1\]
*691 y\[2\]
*692 y\[3\]
*693 y\[4\]
*694 y\[5\]
*695 y\[6\]
*696 y\[7\]
*697 y\[8\]
*698 y\[9\]
*699 FILLER_0_0_109
*700 FILLER_0_0_113
*701 FILLER_0_0_125
*702 FILLER_0_0_137
*703 FILLER_0_0_141
*704 FILLER_0_0_15
*705 FILLER_0_0_153
*706 FILLER_0_0_165
*707 FILLER_0_0_169
*708 FILLER_0_0_181
*709 FILLER_0_0_193
*710 FILLER_0_0_197
*711 FILLER_0_0_209
*712 FILLER_0_0_221
*713 FILLER_0_0_225
*714 FILLER_0_0_237
*715 FILLER_0_0_249
*716 FILLER_0_0_253
*717 FILLER_0_0_265
*718 FILLER_0_0_27
*719 FILLER_0_0_277
*720 FILLER_0_0_281
*721 FILLER_0_0_29
*722 FILLER_0_0_293
*723 FILLER_0_0_3
*724 FILLER_0_0_305
*725 FILLER_0_0_309
*726 FILLER_0_0_321
*727 FILLER_0_0_333
*728 FILLER_0_0_41
*729 FILLER_0_0_53
*730 FILLER_0_0_57
*731 FILLER_0_0_69
*732 FILLER_0_0_81
*733 FILLER_0_0_85
*734 FILLER_0_0_97
*735 FILLER_0_10_109
*736 FILLER_0_10_121
*737 FILLER_0_10_133
*738 FILLER_0_10_139
*739 FILLER_0_10_141
*740 FILLER_0_10_15
*741 FILLER_0_10_153
*742 FILLER_0_10_165
*743 FILLER_0_10_177
*744 FILLER_0_10_189
*745 FILLER_0_10_195
*746 FILLER_0_10_197
*747 FILLER_0_10_209
*748 FILLER_0_10_221
*749 FILLER_0_10_233
*750 FILLER_0_10_245
*751 FILLER_0_10_251
*752 FILLER_0_10_253
*753 FILLER_0_10_265
*754 FILLER_0_10_27
*755 FILLER_0_10_277
*756 FILLER_0_10_289
*757 FILLER_0_10_29
*758 FILLER_0_10_3
*759 FILLER_0_10_301
*760 FILLER_0_10_307
*761 FILLER_0_10_309
*762 FILLER_0_10_321
*763 FILLER_0_10_333
*764 FILLER_0_10_41
*765 FILLER_0_10_53
*766 FILLER_0_10_65
*767 FILLER_0_10_77
*768 FILLER_0_10_83
*769 FILLER_0_10_85
*770 FILLER_0_10_97
*771 FILLER_0_11_105
*772 FILLER_0_11_111
*773 FILLER_0_11_113
*774 FILLER_0_11_125
*775 FILLER_0_11_137
*776 FILLER_0_11_149
*777 FILLER_0_11_15
*778 FILLER_0_11_161
*779 FILLER_0_11_167
*780 FILLER_0_11_169
*781 FILLER_0_11_181
*782 FILLER_0_11_193
*783 FILLER_0_11_205
*784 FILLER_0_11_217
*785 FILLER_0_11_223
*786 FILLER_0_11_225
*787 FILLER_0_11_237
*788 FILLER_0_11_249
*789 FILLER_0_11_261
*790 FILLER_0_11_27
*791 FILLER_0_11_273
*792 FILLER_0_11_279
*793 FILLER_0_11_281
*794 FILLER_0_11_293
*795 FILLER_0_11_3
*796 FILLER_0_11_305
*797 FILLER_0_11_317
*798 FILLER_0_11_329
*799 FILLER_0_11_39
*800 FILLER_0_11_51
*801 FILLER_0_11_55
*802 FILLER_0_11_57
*803 FILLER_0_11_69
*804 FILLER_0_11_81
*805 FILLER_0_11_93
*806 FILLER_0_12_109
*807 FILLER_0_12_121
*808 FILLER_0_12_133
*809 FILLER_0_12_139
*810 FILLER_0_12_141
*811 FILLER_0_12_15
*812 FILLER_0_12_153
*813 FILLER_0_12_165
*814 FILLER_0_12_177
*815 FILLER_0_12_189
*816 FILLER_0_12_195
*817 FILLER_0_12_197
*818 FILLER_0_12_209
*819 FILLER_0_12_221
*820 FILLER_0_12_233
*821 FILLER_0_12_245
*822 FILLER_0_12_251
*823 FILLER_0_12_253
*824 FILLER_0_12_265
*825 FILLER_0_12_27
*826 FILLER_0_12_277
*827 FILLER_0_12_289
*828 FILLER_0_12_29
*829 FILLER_0_12_3
*830 FILLER_0_12_301
*831 FILLER_0_12_307
*832 FILLER_0_12_309
*833 FILLER_0_12_321
*834 FILLER_0_12_333
*835 FILLER_0_12_41
*836 FILLER_0_12_53
*837 FILLER_0_12_65
*838 FILLER_0_12_77
*839 FILLER_0_12_83
*840 FILLER_0_12_85
*841 FILLER_0_12_97
*842 FILLER_0_13_105
*843 FILLER_0_13_111
*844 FILLER_0_13_113
*845 FILLER_0_13_125
*846 FILLER_0_13_137
*847 FILLER_0_13_149
*848 FILLER_0_13_15
*849 FILLER_0_13_161
*850 FILLER_0_13_167
*851 FILLER_0_13_169
*852 FILLER_0_13_181
*853 FILLER_0_13_193
*854 FILLER_0_13_205
*855 FILLER_0_13_217
*856 FILLER_0_13_223
*857 FILLER_0_13_225
*858 FILLER_0_13_237
*859 FILLER_0_13_249
*860 FILLER_0_13_261
*861 FILLER_0_13_27
*862 FILLER_0_13_273
*863 FILLER_0_13_279
*864 FILLER_0_13_281
*865 FILLER_0_13_293
*866 FILLER_0_13_3
*867 FILLER_0_13_305
*868 FILLER_0_13_317
*869 FILLER_0_13_329
*870 FILLER_0_13_39
*871 FILLER_0_13_51
*872 FILLER_0_13_55
*873 FILLER_0_13_57
*874 FILLER_0_13_69
*875 FILLER_0_13_81
*876 FILLER_0_13_93
*877 FILLER_0_14_109
*878 FILLER_0_14_121
*879 FILLER_0_14_133
*880 FILLER_0_14_139
*881 FILLER_0_14_141
*882 FILLER_0_14_15
*883 FILLER_0_14_153
*884 FILLER_0_14_165
*885 FILLER_0_14_177
*886 FILLER_0_14_189
*887 FILLER_0_14_195
*888 FILLER_0_14_197
*889 FILLER_0_14_209
*890 FILLER_0_14_221
*891 FILLER_0_14_233
*892 FILLER_0_14_245
*893 FILLER_0_14_251
*894 FILLER_0_14_253
*895 FILLER_0_14_265
*896 FILLER_0_14_27
*897 FILLER_0_14_277
*898 FILLER_0_14_289
*899 FILLER_0_14_29
*900 FILLER_0_14_3
*901 FILLER_0_14_301
*902 FILLER_0_14_307
*903 FILLER_0_14_309
*904 FILLER_0_14_321
*905 FILLER_0_14_333
*906 FILLER_0_14_41
*907 FILLER_0_14_53
*908 FILLER_0_14_65
*909 FILLER_0_14_77
*910 FILLER_0_14_83
*911 FILLER_0_14_85
*912 FILLER_0_14_97
*913 FILLER_0_15_105
*914 FILLER_0_15_111
*915 FILLER_0_15_113
*916 FILLER_0_15_125
*917 FILLER_0_15_137
*918 FILLER_0_15_149
*919 FILLER_0_15_15
*920 FILLER_0_15_161
*921 FILLER_0_15_167
*922 FILLER_0_15_169
*923 FILLER_0_15_181
*924 FILLER_0_15_193
*925 FILLER_0_15_205
*926 FILLER_0_15_217
*927 FILLER_0_15_223
*928 FILLER_0_15_225
*929 FILLER_0_15_237
*930 FILLER_0_15_249
*931 FILLER_0_15_261
*932 FILLER_0_15_27
*933 FILLER_0_15_273
*934 FILLER_0_15_279
*935 FILLER_0_15_281
*936 FILLER_0_15_293
*937 FILLER_0_15_3
*938 FILLER_0_15_305
*939 FILLER_0_15_317
*940 FILLER_0_15_329
*941 FILLER_0_15_39
*942 FILLER_0_15_51
*943 FILLER_0_15_55
*944 FILLER_0_15_57
*945 FILLER_0_15_69
*946 FILLER_0_15_81
*947 FILLER_0_15_93
*948 FILLER_0_16_109
*949 FILLER_0_16_121
*950 FILLER_0_16_133
*951 FILLER_0_16_139
*952 FILLER_0_16_141
*953 FILLER_0_16_15
*954 FILLER_0_16_153
*955 FILLER_0_16_165
*956 FILLER_0_16_177
*957 FILLER_0_16_189
*958 FILLER_0_16_195
*959 FILLER_0_16_197
*960 FILLER_0_16_209
*961 FILLER_0_16_221
*962 FILLER_0_16_233
*963 FILLER_0_16_245
*964 FILLER_0_16_251
*965 FILLER_0_16_253
*966 FILLER_0_16_265
*967 FILLER_0_16_27
*968 FILLER_0_16_277
*969 FILLER_0_16_289
*970 FILLER_0_16_29
*971 FILLER_0_16_3
*972 FILLER_0_16_301
*973 FILLER_0_16_307
*974 FILLER_0_16_309
*975 FILLER_0_16_321
*976 FILLER_0_16_333
*977 FILLER_0_16_41
*978 FILLER_0_16_53
*979 FILLER_0_16_65
*980 FILLER_0_16_77
*981 FILLER_0_16_83
*982 FILLER_0_16_85
*983 FILLER_0_16_97
*984 FILLER_0_17_105
*985 FILLER_0_17_111
*986 FILLER_0_17_113
*987 FILLER_0_17_125
*988 FILLER_0_17_137
*989 FILLER_0_17_149
*990 FILLER_0_17_15
*991 FILLER_0_17_161
*992 FILLER_0_17_167
*993 FILLER_0_17_169
*994 FILLER_0_17_181
*995 FILLER_0_17_193
*996 FILLER_0_17_205
*997 FILLER_0_17_217
*998 FILLER_0_17_223
*999 FILLER_0_17_225
*1000 FILLER_0_17_237
*1001 FILLER_0_17_249
*1002 FILLER_0_17_261
*1003 FILLER_0_17_27
*1004 FILLER_0_17_273
*1005 FILLER_0_17_279
*1006 FILLER_0_17_281
*1007 FILLER_0_17_293
*1008 FILLER_0_17_3
*1009 FILLER_0_17_305
*1010 FILLER_0_17_317
*1011 FILLER_0_17_329
*1012 FILLER_0_17_39
*1013 FILLER_0_17_51
*1014 FILLER_0_17_55
*1015 FILLER_0_17_57
*1016 FILLER_0_17_69
*1017 FILLER_0_17_81
*1018 FILLER_0_17_93
*1019 FILLER_0_18_109
*1020 FILLER_0_18_121
*1021 FILLER_0_18_133
*1022 FILLER_0_18_139
*1023 FILLER_0_18_141
*1024 FILLER_0_18_15
*1025 FILLER_0_18_153
*1026 FILLER_0_18_165
*1027 FILLER_0_18_177
*1028 FILLER_0_18_189
*1029 FILLER_0_18_195
*1030 FILLER_0_18_197
*1031 FILLER_0_18_209
*1032 FILLER_0_18_221
*1033 FILLER_0_18_233
*1034 FILLER_0_18_245
*1035 FILLER_0_18_251
*1036 FILLER_0_18_253
*1037 FILLER_0_18_265
*1038 FILLER_0_18_27
*1039 FILLER_0_18_277
*1040 FILLER_0_18_289
*1041 FILLER_0_18_29
*1042 FILLER_0_18_3
*1043 FILLER_0_18_301
*1044 FILLER_0_18_307
*1045 FILLER_0_18_309
*1046 FILLER_0_18_321
*1047 FILLER_0_18_333
*1048 FILLER_0_18_41
*1049 FILLER_0_18_53
*1050 FILLER_0_18_65
*1051 FILLER_0_18_77
*1052 FILLER_0_18_83
*1053 FILLER_0_18_85
*1054 FILLER_0_18_97
*1055 FILLER_0_19_105
*1056 FILLER_0_19_111
*1057 FILLER_0_19_113
*1058 FILLER_0_19_125
*1059 FILLER_0_19_137
*1060 FILLER_0_19_149
*1061 FILLER_0_19_15
*1062 FILLER_0_19_161
*1063 FILLER_0_19_167
*1064 FILLER_0_19_169
*1065 FILLER_0_19_181
*1066 FILLER_0_19_193
*1067 FILLER_0_19_205
*1068 FILLER_0_19_217
*1069 FILLER_0_19_223
*1070 FILLER_0_19_225
*1071 FILLER_0_19_237
*1072 FILLER_0_19_249
*1073 FILLER_0_19_261
*1074 FILLER_0_19_27
*1075 FILLER_0_19_273
*1076 FILLER_0_19_279
*1077 FILLER_0_19_281
*1078 FILLER_0_19_293
*1079 FILLER_0_19_3
*1080 FILLER_0_19_305
*1081 FILLER_0_19_317
*1082 FILLER_0_19_329
*1083 FILLER_0_19_39
*1084 FILLER_0_19_51
*1085 FILLER_0_19_55
*1086 FILLER_0_19_57
*1087 FILLER_0_19_69
*1088 FILLER_0_19_81
*1089 FILLER_0_19_93
*1090 FILLER_0_1_105
*1091 FILLER_0_1_111
*1092 FILLER_0_1_113
*1093 FILLER_0_1_125
*1094 FILLER_0_1_137
*1095 FILLER_0_1_149
*1096 FILLER_0_1_15
*1097 FILLER_0_1_161
*1098 FILLER_0_1_167
*1099 FILLER_0_1_169
*1100 FILLER_0_1_181
*1101 FILLER_0_1_193
*1102 FILLER_0_1_205
*1103 FILLER_0_1_217
*1104 FILLER_0_1_223