*SPEF "ieee 1481-1999"
*DESIGN "tt_um_wokwi_395263962779770881"
*DATE "17:17:23 Tuesday April 16, 2024"
*VENDOR "The OpenROAD Project"
*PROGRAM "OpenROAD"
*VERSION "0889970d1790a2617e69f253221b8bd7626e51dc"
*DESIGN_FLOW "NAME_SCOPE LOCAL" "PIN_CAP NONE"
*DIVIDER /
*DELIMITER :
*BUS_DELIMITER []
*T_UNIT 1 NS
*C_UNIT 1 PF
*R_UNIT 1 OHM
*L_UNIT 1 HENRY

*NAME_MAP
*3 clk
*4 ena
*5 rst_n
*6 ui_in[0]
*7 ui_in[1]
*8 ui_in[2]
*9 ui_in[3]
*10 ui_in[4]
*11 ui_in[5]
*12 ui_in[6]
*13 ui_in[7]
*14 uio_in[0]
*15 uio_in[1]
*16 uio_in[2]
*17 uio_in[3]
*18 uio_in[4]
*19 uio_in[5]
*20 uio_in[6]
*21 uio_in[7]
*22 net3
*23 net4
*24 net5
*25 net6
*26 net7
*27 net8
*28 net9
*29 net10
*30 net11
*31 net12
*32 net13
*33 net14
*34 net15
*35 net16
*36 net17
*37 net18
*38 uo_out[0]
*39 uo_out[1]
*40 uo_out[2]
*41 uo_out[3]
*42 uo_out[4]
*43 uo_out[5]
*44 uo_out[6]
*45 uo_out[7]
*46 _000_
*47 _001_
*48 _002_
*49 _003_
*50 _004_
*51 _005_
*52 _006_
*53 _007_
*54 _008_
*55 _009_
*56 _010_
*57 _011_
*58 _012_
*59 _013_
*60 _014_
*61 _015_
*62 _016_
*63 _017_
*64 _018_
*65 _019_
*66 _020_
*67 _021_
*68 _022_
*69 _023_
*70 _024_
*71 _025_
*72 _026_
*73 _027_
*74 _028_
*75 _029_
*76 _030_
*77 _031_
*78 _032_
*79 _033_
*80 _034_
*81 _035_
*82 _036_
*83 _037_
*84 _038_
*85 _039_
*86 _040_
*87 _041_
*88 _042_
*89 _043_
*90 _044_
*91 _045_
*92 _046_
*93 _047_
*94 _048_
*95 _049_
*96 _050_
*97 _051_
*98 _052_
*99 _053_
*100 _054_
*101 _055_
*102 _056_
*103 _057_
*104 _058_
*105 _059_
*106 _060_
*107 _061_
*108 _062_
*109 _063_
*110 _064_
*111 _065_
*112 _066_
*113 _067_
*114 _068_
*115 _069_
*116 _070_
*117 and5\.a
*118 and5\.b
*119 and6\.a
*120 and6\.b
*121 clknet_0_clk
*122 clknet_4_0_0_clk
*123 clknet_4_10_0_clk
*124 clknet_4_11_0_clk
*125 clknet_4_12_0_clk
*126 clknet_4_13_0_clk
*127 clknet_4_14_0_clk
*128 clknet_4_15_0_clk
*129 clknet_4_1_0_clk
*130 clknet_4_2_0_clk
*131 clknet_4_3_0_clk
*132 clknet_4_4_0_clk
*133 clknet_4_5_0_clk
*134 clknet_4_6_0_clk
*135 clknet_4_7_0_clk
*136 clknet_4_8_0_clk
*137 clknet_4_9_0_clk
*138 flipflop0\.d
*139 flipflop0\.q
*140 flipflop1\.q
*141 flipflop10\.d
*142 flipflop10\.q
*143 flipflop100\.d
*144 flipflop100\.q
*145 flipflop101\.q
*146 flipflop102\.q
*147 flipflop103\.q
*148 flipflop104\.q
*149 flipflop105\.q
*150 flipflop106\.q
*151 flipflop107\.q
*152 flipflop108\.q
*153 flipflop109\.q
*154 flipflop11\.q
*155 flipflop110\.q
*156 flipflop111\.q
*157 flipflop112\.q
*158 flipflop113\.q
*159 flipflop114\.q
*160 flipflop115\.q
*161 flipflop116\.q
*162 flipflop117\.q
*163 flipflop118\.q
*164 flipflop119\.q
*165 flipflop12\.q
*166 flipflop120\.q
*167 flipflop121\.q
*168 flipflop122\.q
*169 flipflop123\.q
*170 flipflop124\.q
*171 flipflop125\.q
*172 flipflop126\.q
*173 flipflop127\.q
*174 flipflop128\.q
*175 flipflop129\.q
*176 flipflop13\.q
*177 flipflop130\.q
*178 flipflop131\.q
*179 flipflop132\.q
*180 flipflop133\.q
*181 flipflop134\.q
*182 flipflop135\.q
*183 flipflop136\.q
*184 flipflop137\.q
*185 flipflop138\.q
*186 flipflop139\.q
*187 flipflop14\.q
*188 flipflop140\.q
*189 flipflop141\.q
*190 flipflop142\.q
*191 flipflop143\.q
*192 flipflop144\.q
*193 flipflop145\.q
*194 flipflop146\.q
*195 flipflop147\.q
*196 flipflop148\.q
*197 flipflop149\.q
*198 flipflop15\.q
*199 flipflop150\.q
*200 flipflop151\.q
*201 flipflop152\.q
*202 flipflop153\.q
*203 flipflop154\.q
*204 flipflop155\.q
*205 flipflop156\.q
*206 flipflop157\.q
*207 flipflop158\.q
*208 flipflop159\.q
*209 flipflop16\.q
*210 flipflop160\.q
*211 flipflop161\.q
*212 flipflop162\.q
*213 flipflop163\.q
*214 flipflop164\.q
*215 flipflop165\.q
*216 flipflop166\.q
*217 flipflop167\.q
*218 flipflop168\.q
*219 flipflop169\.q
*220 flipflop17\.q
*221 flipflop170\.q
*222 flipflop171\.q
*223 flipflop172\.q
*224 flipflop173\.q
*225 flipflop176\.q
*226 flipflop18\.q
*227 flipflop19\.q
*228 flipflop2\.q
*229 flipflop20\.q
*230 flipflop21\.q
*231 flipflop22\.q
*232 flipflop23\.q
*233 flipflop24\.q
*234 flipflop25\.q
*235 flipflop26\.q
*236 flipflop27\.q
*237 flipflop28\.q
*238 flipflop29\.q
*239 flipflop3\.q
*240 flipflop30\.q
*241 flipflop31\.q
*242 flipflop32\.q
*243 flipflop33\.q
*244 flipflop34\.q
*245 flipflop35\.q
*246 flipflop36\.q
*247 flipflop37\.q
*248 flipflop38\.q
*249 flipflop39\.q
*250 flipflop4\.q
*251 flipflop40\.q
*252 flipflop41\.q
*253 flipflop42\.q
*254 flipflop43\.q
*255 flipflop44\.q
*256 flipflop45\.q
*257 flipflop46\.q
*258 flipflop47\.q
*259 flipflop48\.q
*260 flipflop49\.q
*261 flipflop5\.q
*262 flipflop50\.q
*263 flipflop51\.q
*264 flipflop52\.q
*265 flipflop53\.q
*266 flipflop54\.q
*267 flipflop55\.q
*268 flipflop56\.q
*269 flipflop57\.q
*270 flipflop58\.q
*271 flipflop59\.q
*272 flipflop6\.q
*273 flipflop60\.q
*274 flipflop61\.q
*275 flipflop62\.q
*276 flipflop63\.q
*277 flipflop64\.q
*278 flipflop65\.q
*279 flipflop66\.q
*280 flipflop67\.q
*281 flipflop68\.q
*282 flipflop69\.q
*283 flipflop7\.q
*284 flipflop70\.q
*285 flipflop71\.q
*286 flipflop72\.q
*287 flipflop73\.q
*288 flipflop74\.q
*289 flipflop75\.q
*290 flipflop76\.q
*291 flipflop77\.q
*292 flipflop78\.q
*293 flipflop79\.q
*294 flipflop8\.q
*295 flipflop80\.q
*296 flipflop81\.q
*297 flipflop82\.q
*298 flipflop83\.q
*299 flipflop84\.q
*300 flipflop85\.q
*301 flipflop86\.q
*302 flipflop87\.q
*303 flipflop88\.q
*304 flipflop89\.q
*305 flipflop92\.q
*306 flipflop93\.d
*307 flipflop93\.q
*308 flipflop94\.q
*309 flipflop95\.q
*310 flipflop96\.q
*311 flipflop97\.q
*312 flipflop98\.q
*313 net1
*314 net100
*315 net101
*316 net102
*317 net103
*318 net104
*319 net105
*320 net106
*321 net107
*322 net108
*323 net109
*324 net110
*325 net111
*326 net112
*327 net113
*328 net114
*329 net115
*330 net116
*331 net117
*332 net118
*333 net119
*334 net120
*335 net121
*336 net122
*337 net123
*338 net124
*339 net125
*340 net126
*341 net127
*342 net128
*343 net129
*344 net130
*345 net131
*346 net132
*347 net133
*348 net134
*349 net135
*350 net136
*351 net137
*352 net138
*353 net139
*354 net140
*355 net141
*356 net142
*357 net143
*358 net144
*359 net145
*360 net146
*361 net147
*362 net148
*363 net149
*364 net150
*365 net151
*366 net152
*367 net153
*368 net154
*369 net155
*370 net156
*371 net157
*372 net158
*373 net159
*374 net160
*375 net161
*376 net162
*377 net163
*378 net164
*379 net165
*380 net166
*381 net167
*382 net168
*383 net169
*384 net170
*385 net171
*386 net172
*387 net173
*388 net174
*389 net175
*390 net176
*391 net177
*392 net178
*393 net179
*394 net180
*395 net181
*396 net182
*397 net183
*398 net184
*399 net185
*400 net186
*401 net187
*402 net188
*403 net189
*404 net19
*405 net190
*406 net191
*407 net192
*408 net193
*409 net194
*410 net2
*411 net20
*412 net21
*413 net22
*414 net23
*415 net24
*416 net25
*417 net26
*418 net27
*419 net28
*420 net29
*421 net30
*422 net31
*423 net32
*424 net33
*425 net34
*426 net35
*427 net36
*428 net37
*429 net38
*430 net39
*431 net40
*432 net41
*433 net42
*434 net43
*435 net44
*436 net45
*437 net46
*438 net47
*439 net48
*440 net49
*441 net50
*442 net51
*443 net52
*444 net53
*445 net54
*446 net55
*447 net56
*448 net57
*449 net58
*450 net59
*451 net60
*452 net61
*453 net62
*454 net63
*455 net64
*456 net65
*457 net66
*458 net67
*459 net68
*460 net69
*461 net70
*462 net71
*463 net72
*464 net73
*465 net74
*466 net75
*467 net76
*468 net77
*469 net78
*470 net79
*471 net80
*472 net81
*473 net82
*474 net83
*475 net84
*476 net85
*477 net86
*478 net87
*479 net88
*480 net89
*481 net90
*482 net91
*483 net92
*484 net93
*485 net94
*486 net95
*487 net96
*488 net97
*489 net98
*490 net99
*491 xor5\.out
*492 xor6\.out
*493 FILLER_0_0_109
*494 FILLER_0_0_113
*495 FILLER_0_0_125
*496 FILLER_0_0_137
*497 FILLER_0_0_141
*498 FILLER_0_0_15
*499 FILLER_0_0_153
*500 FILLER_0_0_165
*501 FILLER_0_0_169
*502 FILLER_0_0_181
*503 FILLER_0_0_193
*504 FILLER_0_0_197
*505 FILLER_0_0_209
*506 FILLER_0_0_221
*507 FILLER_0_0_225
*508 FILLER_0_0_237
*509 FILLER_0_0_249
*510 FILLER_0_0_253
*511 FILLER_0_0_265
*512 FILLER_0_0_27
*513 FILLER_0_0_277
*514 FILLER_0_0_281
*515 FILLER_0_0_29
*516 FILLER_0_0_293
*517 FILLER_0_0_3
*518 FILLER_0_0_305
*519 FILLER_0_0_309
*520 FILLER_0_0_321
*521 FILLER_0_0_333
*522 FILLER_0_0_41
*523 FILLER_0_0_53
*524 FILLER_0_0_57
*525 FILLER_0_0_69
*526 FILLER_0_0_81
*527 FILLER_0_0_85
*528 FILLER_0_0_97
*529 FILLER_0_10_109
*530 FILLER_0_10_121
*531 FILLER_0_10_133
*532 FILLER_0_10_139
*533 FILLER_0_10_141
*534 FILLER_0_10_15
*535 FILLER_0_10_153
*536 FILLER_0_10_165
*537 FILLER_0_10_177
*538 FILLER_0_10_189
*539 FILLER_0_10_195
*540 FILLER_0_10_197
*541 FILLER_0_10_209
*542 FILLER_0_10_221
*543 FILLER_0_10_233
*544 FILLER_0_10_245
*545 FILLER_0_10_251
*546 FILLER_0_10_253
*547 FILLER_0_10_265
*548 FILLER_0_10_27
*549 FILLER_0_10_277
*550 FILLER_0_10_289
*551 FILLER_0_10_29
*552 FILLER_0_10_3
*553 FILLER_0_10_301
*554 FILLER_0_10_307
*555 FILLER_0_10_309
*556 FILLER_0_10_321
*557 FILLER_0_10_333
*558 FILLER_0_10_41
*559 FILLER_0_10_53
*560 FILLER_0_10_65
*561 FILLER_0_10_77
*562 FILLER_0_10_83
*563 FILLER_0_10_85
*564 FILLER_0_10_97
*565 FILLER_0_11_105
*566 FILLER_0_11_111
*567 FILLER_0_11_113
*568 FILLER_0_11_125
*569 FILLER_0_11_137
*570 FILLER_0_11_149
*571 FILLER_0_11_15
*572 FILLER_0_11_161
*573 FILLER_0_11_167
*574 FILLER_0_11_169
*575 FILLER_0_11_181
*576 FILLER_0_11_193
*577 FILLER_0_11_205
*578 FILLER_0_11_217
*579 FILLER_0_11_223
*580 FILLER_0_11_225
*581 FILLER_0_11_237
*582 FILLER_0_11_249
*583 FILLER_0_11_261
*584 FILLER_0_11_27
*585 FILLER_0_11_273
*586 FILLER_0_11_279
*587 FILLER_0_11_281
*588 FILLER_0_11_293
*589 FILLER_0_11_3
*590 FILLER_0_11_305
*591 FILLER_0_11_317
*592 FILLER_0_11_329
*593 FILLER_0_11_39
*594 FILLER_0_11_51
*595 FILLER_0_11_55
*596 FILLER_0_11_57
*597 FILLER_0_11_69
*598 FILLER_0_11_81
*599 FILLER_0_11_93
*600 FILLER_0_12_109
*601 FILLER_0_12_121
*602 FILLER_0_12_133
*603 FILLER_0_12_139
*604 FILLER_0_12_141
*605 FILLER_0_12_15
*606 FILLER_0_12_153
*607 FILLER_0_12_165
*608 FILLER_0_12_177
*609 FILLER_0_12_189
*610 FILLER_0_12_195
*611 FILLER_0_12_197
*612 FILLER_0_12_209
*613 FILLER_0_12_221
*614 FILLER_0_12_233
*615 FILLER_0_12_245
*616 FILLER_0_12_251
*617 FILLER_0_12_253
*618 FILLER_0_12_265
*619 FILLER_0_12_27
*620 FILLER_0_12_277
*621 FILLER_0_12_289
*622 FILLER_0_12_29
*623 FILLER_0_12_3
*624 FILLER_0_12_301
*625 FILLER_0_12_307
*626 FILLER_0_12_309
*627 FILLER_0_12_321
*628 FILLER_0_12_333
*629 FILLER_0_12_41
*630 FILLER_0_12_53
*631 FILLER_0_12_65
*632 FILLER_0_12_77
*633 FILLER_0_12_83
*634 FILLER_0_12_85
*635 FILLER_0_12_97
*636 FILLER_0_13_105
*637 FILLER_0_13_111
*638 FILLER_0_13_113
*639 FILLER_0_13_125
*640 FILLER_0_13_137
*641 FILLER_0_13_149
*642 FILLER_0_13_15
*643 FILLER_0_13_161
*644 FILLER_0_13_167
*645 FILLER_0_13_169
*646 FILLER_0_13_181
*647 FILLER_0_13_193
*648 FILLER_0_13_205
*649 FILLER_0_13_217
*650 FILLER_0_13_223
*651 FILLER_0_13_225
*652 FILLER_0_13_237
*653 FILLER_0_13_249
*654 FILLER_0_13_261
*655 FILLER_0_13_27
*656 FILLER_0_13_273
*657 FILLER_0_13_279
*658 FILLER_0_13_281
*659 FILLER_0_13_293
*660 FILLER_0_13_3
*661 FILLER_0_13_305
*662 FILLER_0_13_317
*663 FILLER_0_13_329
*664 FILLER_0_13_39
*665 FILLER_0_13_51
*666 FILLER_0_13_55
*667 FILLER_0_13_57
*668 FILLER_0_13_69
*669 FILLER_0_13_81
*670 FILLER_0_13_93
*671 FILLER_0_14_109
*672 FILLER_0_14_121
*673 FILLER_0_14_133
*674 FILLER_0_14_139
*675 FILLER_0_14_141
*676 FILLER_0_14_15
*677 FILLER_0_14_153
*678 FILLER_0_14_165
*679 FILLER_0_14_177
*680 FILLER_0_14_189
*681 FILLER_0_14_195
*682 FILLER_0_14_197
*683 FILLER_0_14_209
*684 FILLER_0_14_221
*685 FILLER_0_14_233
*686 FILLER_0_14_245
*687 FILLER_0_14_251
*688 FILLER_0_14_253
*689 FILLER_0_14_265
*690 FILLER_0_14_27
*691 FILLER_0_14_277
*692 FILLER_0_14_289
*693 FILLER_0_14_29
*694 FILLER_0_14_3
*695 FILLER_0_14_301
*696 FILLER_0_14_307
*697 FILLER_0_14_309
*698 FILLER_0_14_321
*699 FILLER_0_14_333
*700 FILLER_0_14_41
*701 FILLER_0_14_53
*702 FILLER_0_14_65
*703 FILLER_0_14_77
*704 FILLER_0_14_83
*705 FILLER_0_14_85
*706 FILLER_0_14_97
*707 FILLER_0_15_105
*708 FILLER_0_15_111
*709 FILLER_0_15_113
*710 FILLER_0_15_125
*711 FILLER_0_15_137
*712 FILLER_0_15_149
*713 FILLER_0_15_15
*714 FILLER_0_15_161
*715 FILLER_0_15_167
*716 FILLER_0_15_169
*717 FILLER_0_15_181
*718 FILLER_0_15_193
*719 FILLER_0_15_205
*720 FILLER_0_15_217
*721 FILLER_0_15_223
*722 FILLER_0_15_225
*723 FILLER_0_15_237
*724 FILLER_0_15_249
*725 FILLER_0_15_261
*726 FILLER_0_15_27
*727 FILLER_0_15_273
*728 FILLER_0_15_279
*729 FILLER_0_15_281
*730 FILLER_0_15_293
*731 FILLER_0_15_3
*732 FILLER_0_15_305
*733 FILLER_0_15_317
*734 FILLER_0_15_329
*735 FILLER_0_15_39
*736 FILLER_0_15_51
*737 FILLER_0_15_55
*738 FILLER_0_15_57
*739 FILLER_0_15_69
*740 FILLER_0_15_81
*741 FILLER_0_15_93
*742 FILLER_0_16_109
*743 FILLER_0_16_121
*744 FILLER_0_16_133
*745 FILLER_0_16_139
*746 FILLER_0_16_15
*747 FILLER_0_16_163
*748 FILLER_0_16_175
*749 FILLER_0_16_187
*750 FILLER_0_16_195
*751 FILLER_0_16_197
*752 FILLER_0_16_209
*753 FILLER_0_16_221
*754 FILLER_0_16_233
*755 FILLER_0_16_245
*756 FILLER_0_16_251
*757 FILLER_0_16_253
*758 FILLER_0_16_265
*759 FILLER_0_16_27
*760 FILLER_0_16_277
*761 FILLER_0_16_289
*762 FILLER_0_16_29
*763 FILLER_0_16_3
*764 FILLER_0_16_301
*765 FILLER_0_16_307
*766 FILLER_0_16_309
*767 FILLER_0_16_321
*768 FILLER_0_16_333
*769 FILLER_0_16_41
*770 FILLER_0_16_53
*771 FILLER_0_16_59
*772 FILLER_0_16_68
*773 FILLER_0_16_80
*774 FILLER_0_16_85
*775 FILLER_0_16_97
*776 FILLER_0_17_109
*777 FILLER_0_17_113
*778 FILLER_0_17_125
*779 FILLER_0_17_133
*780 FILLER_0_17_15
*781 FILLER_0_17_166
*782 FILLER_0_17_169
*783 FILLER_0_17_209
*784 FILLER_0_17_221
*785 FILLER_0_17_225
*786 FILLER_0_17_237
*787 FILLER_0_17_249
*788 FILLER_0_17_261
*789 FILLER_0_17_27
*790 FILLER_0_17_273
*791 FILLER_0_17_279
*792 FILLER_0_17_281
*793 FILLER_0_17_293
*794 FILLER_0_17_3
*795 FILLER_0_17_305
*796 FILLER_0_17_317
*797 FILLER_0_17_329
*798 FILLER_0_17_39
*799 FILLER_0_17_51
*800 FILLER_0_17_55
*801 FILLER_0_17_73
*802 FILLER_0_17_85
*803 FILLER_0_17_97
*804 FILLER_0_18_106
*805 FILLER_0_18_114
*806 FILLER_0_18_15
*807 FILLER_0_18_157
*808 FILLER_0_18_165
*809 FILLER_0_18_191
*810 FILLER_0_18_195
*811 FILLER_0_18_213
*812 FILLER_0_18_225
*813 FILLER_0_18_237
*814 FILLER_0_18_249
*815 FILLER_0_18_253
*816 FILLER_0_18_265
*817 FILLER_0_18_27
*818 FILLER_0_18_271
*819 FILLER_0_18_278
*820 FILLER_0_18_29
*821 FILLER_0_18_290
*822 FILLER_0_18_3
*823 FILLER_0_18_302
*824 FILLER_0_18_309
*825 FILLER_0_18_321
*826 FILLER_0_18_333
*827 FILLER_0_18_41
*828 FILLER_0_18_73
*829 FILLER_0_18_85
*830 FILLER_0_18_89
*831 FILLER_0_19_110
*832 FILLER_0_19_113
*833 FILLER_0_19_125
*834 FILLER_0_19_15
*835 FILLER_0_19_161
*836 FILLER_0_19_167
*837 FILLER_0_19_169
*838 FILLER_0_19_207
*839 FILLER_0_19_216
*840 FILLER_0_19_225
*841 FILLER_0_19_237
*842 FILLER_0_19_249
*843 FILLER_0_19_261
*844 FILLER_0_19_27
*845 FILLER_0_19_277
*846 FILLER_0_19_3
*847 FILLER_0_19_305
*848 FILLER_0_19_309
*849 FILLER_0_19_326
*850 FILLER_0_19_334
*851 FILLER_0_19_39
*852 FILLER_0_19_73
*853 FILLER_0_19_83
*854 FILLER_0_19_89
*855 FILLER_0_19_98
*856 FILLER_0_1_105
*857 FILLER_0_1_111
*858 FILLER_0_1_113
*859 FILLER_0_1_125
*860 FILLER_0_1_137
*861 FILLER_0_1_149
*862 FILLER_0_1_15
*863 FILLER_0_1_161
*864 FILLER_0_1_167
*865 FILLER_0_1_169
*866 FILLER_0_1_181
*867 FILLER_0_1_193
*868 FILLER_0_1_205
*869 FILLER_0_1_217
*870 FILLER_0_1_223
*871 FILLER_0_1_225
*872 FILLER_0_1_237
*873 FILLER_0_1_249
*874 FILLER_0_1_261
*875 FILLER_0_1_27
*876 FILLER_0_1_273
*877 FILLER_0_1_279
*878 FILLER_0_1_281
*879 FILLER_0_1_293
*880 FILLER_0_1_3
*881 FILLER_0_1_305
*882 FILLER_0_1_317
*883 FILLER_0_1_329
*884 FILLER_0_1_39
*885 FILLER_0_1_51
*886 FILLER_0_1_55
*887 FILLER_0_1_57
*888 FILLER_0_1_69
*889 FILLER_0_1_81
*890 FILLER_0_1_93
*891 FILLER_0_20_104
*892 FILLER_0_20_123
*893 FILLER_0_20_15
*894 FILLER_0_20_171
*895 FILLER_0_20_195
*896 FILLER_0_20_213
*897 FILLER_0_20_225
*898 FILLER_0_20_237
*899 FILLER_0_20_249
*900 FILLER_0_20_269
*901 FILLER_0_20_27
*902 FILLER_0_20_288
*903 FILLER_0_20_29
*904 FILLER_0_20_292
*905 FILLER_0_20_3
*906 FILLER_0_20_307
*907 FILLER_0_20_309
*908 FILLER_0_20_334
*909 FILLER_0_20_41
*910 FILLER_0_20_82
*911 FILLER_0_20_85
*912 FILLER_0_21_111
*913 FILLER_0_21_113
*914 FILLER_0_21_130
*915 FILLER_0_21_15
*916 FILLER_0_21_159
*917 FILLER_0_21_167
*918 FILLER_0_21_169
*919 FILLER_0_21_173
*920 FILLER_0_21_206
*921 FILLER_0_21_225
*922 FILLER_0_21_234
*923 FILLER_0_21_27
*924 FILLER_0_21_3
*925 FILLER_0_21_39
*926 FILLER_0_21_47
*927 FILLER_0_21_57
*928 FILLER_0_21_93
*929 FILLER_0_22_104
*930 FILLER_0_22_108
*931 FILLER_0_22_139
*932 FILLER_0_22_141
*933 FILLER_0_22_15
*934 FILLER_0_22_156
*935 FILLER_0_22_183
*936 FILLER_0_22_191
*937 FILLER_0_22_195
*938 FILLER_0_22_205
*939 FILLER_0_22_243
*940 FILLER_0_22_251
*941 FILLER_0_22_27
*942 FILLER_0_22_277
*943 FILLER_0_22_281
*944 FILLER_0_22_29
*945 FILLER_0_22_298
*946 FILLER_0_22_3
*947 FILLER_0_22_305
*948 FILLER_0_22_309
*949 FILLER_0_22_41
*950 FILLER_0_22_71
*951 FILLER_0_22_85
*952 FILLER_0_23_111
*953 FILLER_0_23_129
*954 FILLER_0_23_139
*955 FILLER_0_23_15
*956 FILLER_0_23_161
*957 FILLER_0_23_167
*958 FILLER_0_23_169
*959 FILLER_0_23_188
*960 FILLER_0_23_233
*961 FILLER_0_23_27
*962 FILLER_0_23_281
*963 FILLER_0_23_3
*964 FILLER_0_23_307
*965 FILLER_0_23_334
*966 FILLER_0_23_39
*967 FILLER_0_23_57
*968 FILLER_0_23_86
*969 FILLER_0_24_101
*970 FILLER_0_24_118
*971 FILLER_0_24_135
*972 FILLER_0_24_139
*973 FILLER_0_24_141
*974 FILLER_0_24_15
*975 FILLER_0_24_185
*976 FILLER_0_24_189
*977 FILLER_0_24_240
*978 FILLER_0_24_27
*979 FILLER_0_24_283
*980 FILLER_0_24_29
*981 FILLER_0_24_3
*982 FILLER_0_24_317
*983 FILLER_0_24_323
*984 FILLER_0_24_332
*985 FILLER_0_24_41
*986 FILLER_0_24_83
*987 FILLER_0_25_113
*988 FILLER_0_25_140
*989 FILLER_0_25_15
*990 FILLER_0_25_169
*991 FILLER_0_25_211
*992 FILLER_0_25_223
*993 FILLER_0_25_241
*994 FILLER_0_25_266
*995 FILLER_0_25_27
*996 FILLER_0_25_289
*997 FILLER_0_25_3
*998 FILLER_0_25_312
*999 FILLER_0_25_329
*1000 FILLER_0_25_39
*1001 FILLER_0_25_51
*1002 FILLER_0_25_55
*1003 FILLER_0_25_81
*1004 FILLER_0_25_87
*1005 FILLER_0_26_113
*1006 FILLER_0_26_130
*1007 FILLER_0_26_15
*1008 FILLER_0_26_157
*1009 FILLER_0_26_161
*1010 FILLER_0_26_176
*1011 FILLER_0_26_185
*1012 FILLER_0_26_213
*1013 FILLER_0_26_219
*1014 FILLER_0_26_244
*1015 FILLER_0_26_253
*1016 FILLER_0_26_257
*1017 FILLER_0_26_27
*1018 FILLER_0_26_29
*1019 FILLER_0_26_3
*1020 FILLER_0_26_306
*1021 FILLER_0_26_333
*1022 FILLER_0_26_41
*1023 FILLER_0_26_76
*1024 FILLER_0_26_85
*1025 FILLER_0_27_111
*1026 FILLER_0_27_113
*1027 FILLER_0_27_125
*1028 FILLER_0_27_129
*1029 FILLER_0_27_15
*1030 FILLER_0_27_164
*1031 FILLER_0_27_177
*1032 FILLER_0_27_185
*1033 FILLER_0_27_193
*1034 FILLER_0_27_199
*1035 FILLER_0_27_255
*1036 FILLER_0_27_27
*1037 FILLER_0_27_270
*1038 FILLER_0_27_281
*1039 FILLER_0_27_3
*1040 FILLER_0_27_307
*1041 FILLER_0_27_37
*1042 FILLER_0_27_49
*1043 FILLER_0_27_55
*1044 FILLER_0_28_101
*1045 FILLER_0_28_117
*1046 FILLER_0_28_135
*1047 FILLER_0_28_139
*1048 FILLER_0_28_15
*1049 FILLER_0_28_173
*1050 FILLER_0_28_201
*1051 FILLER_0_28_213
*1052 FILLER_0_28_221
*1053 FILLER_0_28_246
*1054 FILLER_0_28_27
*1055 FILLER_0_28_281
*1056 FILLER_0_28_285
*1057 FILLER_0_28_3
*1058 FILLER_0_28_305
*1059 FILLER_0_28_333
*1060 FILLER_0_28_45
*1061 FILLER_0_28_73
*1062 FILLER_0_28_81
*1063 FILLER_0_29_102
*1064 FILLER_0_29_110
*1065 FILLER_0_29_113
*1066 FILLER_0_29_117
*1067 FILLER_0_29_166
*1068 FILLER_0_29_169
*1069 FILLER_0_29_186
*1070 FILLER_0_29_203
*1071 FILLER_0_29_215
*1072 FILLER_0_29_223
*1073 FILLER_0_29_225
*1074 FILLER_0_29_229
*1075 FILLER_0_29_278
*1076 FILLER_0_29_287
*1077 FILLER_0_29_3
*1078 FILLER_0_29_305
*1079 FILLER_0_29_331
*1080 FILLER_0_29_47
*1081 FILLER_0_29_57
*1082 FILLER_0_2_109
*1083 FILLER_0_2_121
*1084 FILLER_0_2_133
*1085 FILLER_0_2_139
*1086 FILLER_0_2_141
*1087 FILLER_0_2_15
*1088 FILLER_0_2_153
*1089 FILLER_0_2_165
*1090 FILLER_0_2_177
*1091 FILLER_0_2_189
*1092 FILLER_0_2_195
*1093 FILLER_0_2_197
*1094 FILLER_0_2_209
*1095 FILLER_0_2_221
*1096 FILLER_0_2_233
*1097 FILLER_0_2_245
*1098 FILLER_0_2_251
*1099 FILLER_0_2_253
*1100 FILLER_0_2_265
*1101 FILLER_0_2_27
*1102 FILLER_0_2_277
*1103 FILLER_0_2_289
*1104 FILLER_0_2_29
*1105 FILLER_0_2_3
*1106 FILLER_0_2_301
*1107 FILLER_0_2_307
*1108 FILLER_0_2_309
*1109 FILLER_0_2_321
*1110 FILLER_0_2_333
*1111 FILLER_0_2_41
*1112 FILLER_0_2_53
*1113 FILLER_0_2_65
*1114 FILLER_0_2_77
*1115 FILLER_0_2_83
*1116 FILLER_0_2_85
*1117 FILLER_0_2_97
*1118 FILLER_0_30_112
*1119 FILLER_0_30_15
*1120 FILLER_0_30_152
*1121 FILLER_0_30_158
*1122 FILLER_0_30_21
*1123 FILLER_0_30_221
*1124 FILLER_0_30_233
*1125 FILLER_0_30_243
*1126 FILLER_0_30_29
*1127 FILLER_0_30_293
*1128 FILLER_0_30_3
*1129 FILLER_0_30_307
*1130 FILLER_0_30_309
*1131 FILLER_0_30_334
*1132 FILLER_0_30_81
*1133 FILLER_0_30_85
*1134 FILLER_0_31_113
*1135 FILLER_0_31_127
*1136 FILLER_0_31_139
*1137 FILLER_0_31_143
*1138 FILLER_0_31_15
*1139 FILLER_0_31_165
*1140 FILLER_0_31_169
*1141 FILLER_0_31_180
*1142 FILLER_0_31_19
*1143 FILLER_0_31_222
*1144 FILLER_0_31_247
*1145 FILLER_0_31_281
*1146 FILLER_0_31_293
*1147 FILLER_0_31_3
*1148 FILLER_0_31_44
*1149 FILLER_0_31_57
*1150 FILLER_0_31_92
*1151 FILLER_0_32_120
*1152 FILLER_0_32_128
*1153 FILLER_0_32_141
*1154 FILLER_0_32_15
*1155 FILLER_0_32_175
*1156 FILLER_0_32_179
*1157 FILLER_0_32_211
*1158 FILLER_0_32_247
*1159 FILLER_0_32_251
*1160 FILLER_0_32_27
*1161 FILLER_0_32_277
*1162 FILLER_0_32_29
*1163 FILLER_0_32_3
*1164 FILLER_0_32_333
*1165 FILLER_0_32_41
*1166 FILLER_0_32_82
*1167 FILLER_0_32_93
*1168 FILLER_0_32_97
*1169 FILLER_0_33_107
*1170 FILLER_0_33_111
*1171 FILLER_0_33_113
*1172 FILLER_0_33_123
*1173 FILLER_0_33_15
*1174 FILLER_0_33_167
*1175 FILLER_0_33_169
*1176 FILLER_0_33_181
*1177 FILLER_0_33_185
*1178 FILLER_0_33_202
*1179 FILLER_0_33_219
*1180 FILLER_0_33_223
*1181 FILLER_0_33_225
*1182 FILLER_0_33_23
*1183 FILLER_0_33_258
*1184 FILLER_0_33_278
*1185 FILLER_0_33_289
*1186 FILLER_0_33_3
*1187 FILLER_0_33_306
*1188 FILLER_0_33_310
*1189 FILLER_0_33_47
*1190 FILLER_0_33_57
*1191 FILLER_0_34_119
*1192 FILLER_0_34_131
*1193 FILLER_0_34_141
*1194 FILLER_0_34_15
*1195 FILLER_0_34_169
*1196 FILLER_0_34_181
*1197 FILLER_0_34_19
*1198 FILLER_0_34_193
*1199 FILLER_0_34_213
*1200 FILLER_0_34_251
*1201 FILLER_0_34_261
*1202 FILLER_0_34_270
*1203 FILLER_0_34_3
*1204 FILLER_0_34_303
*1205 FILLER_0_34_307
*1206 FILLER_0_34_333
*1207 FILLER_0_34_61
*1208 FILLER_0_34_85
*1209 FILLER_0_34_95
*1210 FILLER_0_35_129
*1211 FILLER_0_35_15
*1212 FILLER_0_35_162
*1213 FILLER_0_35_169
*1214 FILLER_0_35_181
*1215 FILLER_0_35_223
*1216 FILLER_0_35_225
*1217 FILLER_0_35_244
*1218 FILLER_0_35_248
*1219 FILLER_0_35_27
*1220 FILLER_0_35_279
*1221 FILLER_0_35_289
*1222 FILLER_0_35_3
*1223 FILLER_0_35_317
*1224 FILLER_0_35_329
*1225 FILLER_0_35_47
*1226 FILLER_0_35_57
*1227 FILLER_0_35_85
*1228 FILLER_0_36_139
*1229 FILLER_0_36_15
*1230 FILLER_0_36_154
*1231 FILLER_0_36_167
*1232 FILLER_0_36_179
*1233 FILLER_0_36_197
*1234 FILLER_0_36_222
*1235 FILLER_0_36_245
*1236 FILLER_0_36_27
*1237 FILLER_0_36_29
*1238 FILLER_0_36_3
*1239 FILLER_0_36_301
*1240 FILLER_0_36_307
*1241 FILLER_0_36_309
*1242 FILLER_0_36_321
*1243 FILLER_0_36_333
*1244 FILLER_0_36_35
*1245 FILLER_0_37_110
*1246 FILLER_0_37_113
*1247 FILLER_0_37_123
*1248 FILLER_0_37_146
*1249 FILLER_0_37_15
*1250 FILLER_0_37_162
*1251 FILLER_0_37_173
*1252 FILLER_0_37_177
*1253 FILLER_0_37_207
*1254 FILLER_0_37_257
*1255 FILLER_0_37_27
*1256 FILLER_0_37_274
*1257 FILLER_0_37_289
*1258 FILLER_0_37_299
*1259 FILLER_0_37_3
*1260 FILLER_0_37_311
*1261 FILLER_0_37_323
*1262 FILLER_0_37_43
*1263 FILLER_0_37_76
*1264 FILLER_0_38_10
*1265 FILLER_0_38_106
*1266 FILLER_0_38_110
*1267 FILLER_0_38_113
*1268 FILLER_0_38_118
*1269 FILLER_0_38_122
*1270 FILLER_0_38_126
*1271 FILLER_0_38_134
*1272 FILLER_0_38_14
*1273 FILLER_0_38_141
*1274 FILLER_0_38_145
*1275 FILLER_0_38_152
*1276 FILLER_0_38_159
*1277 FILLER_0_38_167
*1278 FILLER_0_38_169
*1279 FILLER_0_38_173
*1280 FILLER_0_38_18
*1281 FILLER_0_38_194
*1282 FILLER_0_38_217
*1283 FILLER_0_38_22
*1284 FILLER_0_38_223
*1285 FILLER_0_38_249
*1286 FILLER_0_38_277
*1287 FILLER_0_38_281
*1288 FILLER_0_38_293
*1289 FILLER_0_38_302
*1290 FILLER_0_38_312
*1291 FILLER_0_38_32
*1292 FILLER_0_38_324
*1293 FILLER_0_38_332
*1294 FILLER_0_38_38
*1295 FILLER_0_38_57
*1296 FILLER_0_38_6
*1297 FILLER_0_38_74
*1298 FILLER_0_38_93
*1299 FILLER_0_3_105
*1300 FILLER_0_3_111
*1301 FILLER_0_3_113
*1302 FILLER_0_3_125
*1303 FILLER_0_3_137
*1304 FILLER_0_3_149
*1305 FILLER_0_3_15
*1306 FILLER_0_3_161
*1307 FILLER_0_3_167
*1308 FILLER_0_3_169
*1309 FILLER_0_3_181
*1310 FILLER_0_3_193
*1311 FILLER_0_3_205
*1312 FILLER_0_3_217
*1313 FILLER_0_3_223
*1314 FILLER_0_3_225
*1315 FILLER_0_3_237
*1316 FILLER_0_3_249
*1317 FILLER_0_3_261
*1318 FILLER_0_3_27
*1319 FILLER_0_3_273
*1320 FILLER_0_3_279
*1321 FILLER_0_3_281
*1322 FILLER_0_3_293
*1323 FILLER_0_3_3
*1324 FILLER_0_3_305
*1325 FILLER_0_3_317
*1326 FILLER_0_3_329
*1327 FILLER_0_3_39
*1328 FILLER_0_3_51
*1329 FILLER_0_3_55
*1330 FILLER_0_3_57
*1331 FILLER_0_3_69
*1332 FILLER_0_3_81
*1333 FILLER_0_3_93
*1334 FILLER_0_4_109
*1335 FILLER_0_4_121
*1336 FILLER_0_4_133
*1337 FILLER_0_4_139
*1338 FILLER_0_4_141
*1339 FILLER_0_4_15
*1340 FILLER_0_4_153
*1341 FILLER_0_4_165
*1342 FILLER_0_4_177
*1343 FILLER_0_4_189
*1344 FILLER_0_4_195
*1345 FILLER_0_4_197
*1346 FILLER_0_4_209
*1347 FILLER_0_4_221
*1348 FILLER_0_4_233
*1349 FILLER_0_4_245
*1350 FILLER_0_4_251
*1351 FILLER_0_4_253
*1352 FILLER_0_4_265
*1353 FILLER_0_4_27
*1354 FILLER_0_4_277
*1355 FILLER_0_4_289
*1356 FILLER_0_4_29
*1357 FILLER_0_4_3
*1358 FILLER_0_4_301
*1359 FILLER_0_4_307
*1360 FILLER_0_4_309
*1361 FILLER_0_4_321
*1362 FILLER_0_4_333
*1363 FILLER_0_4_41
*1364 FILLER_0_4_53
*1365 FILLER_0_4_65
*1366 FILLER_0_4_77
*1367 FILLER_0_4_83
*1368 FILLER_0_4_85
*1369 FILLER_0_4_97
*1370 FILLER_0_5_105
*1371 FILLER_0_5_111
*1372 FILLER_0_5_113
*1373 FILLER_0_5_125
*1374 FILLER_0_5_137
*1375 FILLER_0_5_149
*1376 FILLER_0_5_15
*1377 FILLER_0_5_161
*1378 FILLER_0_5_167
*1379 FILLER_0_5_169
*1380 FILLER_0_5_181
*1381 FILLER_0_5_193
*1382 FILLER_0_5_205
*1383 FILLER_0_5_217
*1384 FILLER_0_5_223
*1385 FILLER_0_5_225
*1386 FILLER_0_5_237
*1387 FILLER_0_5_249
*1388 FILLER_0_5_261
*1389 FILLER_0_5_27
*1390 FILLER_0_5_273
*1391 FILLER_0_5_279
*1392 FILLER_0_5_281
*1393 FILLER_0_5_293
*1394 FILLER_0_5_3
*1395 FILLER_0_5_305
*1396 FILLER_0_5_317
*1397 FILLER_0_5_329
*1398 FILLER_0_5_39
*1399 FILLER_0_5_51
*1400 FILLER_0_5_55
*1401 FILLER_0_5_57
*1402 FILLER_0_5_69
*1403 FILLER_0_5_81
*1404 FILLER_0_5_93
*1405 FILLER_0_6_109
*1406 FILLER_0_6_121
*1407 FILLER_0_6_133
*1408 FILLER_0_6_139
*1409 FILLER_0_6_141
*1410 FILLER_0_6_15
*1411 FILLER_0_6_153
*1412 FILLER_0_6_165
*1413 FILLER_0_6_177
*1414 FILLER_0_6_189
*1415 FILLER_0_6_195
*1416 FILLER_0_6_197
*1417 FILLER_0_6_209
*1418 FILLER_0_6_221
*1419 FILLER_0_6_233
*1420 FILLER_0_6_245
*1421 FILLER_0_6_251
*1422 FILLER_0_6_253
*1423 FILLER_0_6_265
*1424 FILLER_0_6_27
*1425 FILLER_0_6_277
*1426 FILLER_0_6_289
*1427 FILLER_0_6_29
*1428 FILLER_0_6_3
*1429 FILLER_0_6_301
*1430 FILLER_0_6_307
*1431 FILLER_0_6_309
*1432 FILLER_0_6_321
*1433 FILLER_0_6_333
*1434 FILLER_0_6_41
*1435 FILLER_0_6_53
*1436 FILLER_0_6_65
*1437 FILLER_0_6_77
*1438 FILLER_0_6_83
*1439 FILLER_0_6_85
*1440 FILLER_0_6_97
*1441 FILLER_0_7_105
*1442 FILLER_0_7_111
*1443 FILLER_0_7_113
*1444 FILLER_0_7_125
*1445 FILLER_0_7_137
*1446 FILLER_0_7_149
*1447 FILLER_0_7_15
*1448 FILLER_0_7_161
*1449 FILLER_0_7_167
*1450 FILLER_0_7_169
*1451 FILLER_0_7_181
*1452 FILLER_0_7_193
*1453 FILLER_0_7_205
*1454 FILLER_0_7_217
*1455 FILLER_0_7_223
*1456 FILLER_0_7_225
*1457 FILLER_0_7_237
*1458 FILLER_0_7_249
*1459 FILLER_0_7_261
*1460 FILLER_0_7_27
*1461 FILLER_0_7_273
*1462 FILLER_0_7_279
*1463 FILLER_0_7_281
*1464 FILLER_0_7_293
*1465 FILLER_0_7_3
*1466 FILLER_0_7_305
*1467 FILLER_0_7_317
*1468 FILLER_0_7_329
*1469 FILLER_0_7_39
*1470 FILLER_0_7_51
*1471 FILLER_0_7_55
*1472 FILLER_0_7_57
*1473 FILLER_0_7_69
*1474 FILLER_0_7_81
*1475 FILLER_0_7_93
*1476 FILLER_0_8_109
*1477 FILLER_0_8_121
*1478 FILLER_0_8_133
*1479 FILLER_0_8_139
*1480 FILLER_0_8_141
*1481 FILLER_0_8_15
*1482 FILLER_0_8_153
*1483 FILLER_0_8_165
*1484 FILLER_0_8_177
*1485 FILLER_0_8_189
*1486 FILLER_0_8_195
*1487 FILLER_0_8_197
*1488 FILLER_0_8_209
*1489 FILLER_0_8_221
*1490 FILLER_0_8_233
*1491 FILLER_0_8_245
*1492 FILLER_0_8_251
*1493 FILLER_0_8_253
*1494 FILLER_0_8_265
*1495 FILLER_0_8_27
*1496 FILLER_0_8_277
*1497 FILLER_0_8_289
*1498 FILLER_0_8_29
*1499 FILLER_0_8_3
*1500 FILLER_0_8_301
*1501 FILLER_0_8_307
*1502 FILLER_0_8_309
*1503 FILLER_0_8_321
*1504 FILLER_0_8_333
*1505 FILLER_0_8_41
*1506 FILLER_0_8_53
*1507 FILLER_0_8_65
*1508 FILLER_0_8_77
*1509 FILLER_0_8_83
*1510 FILLER_0_8_85
*1511 FILLER_0_8_97
*1512 FILLER_0_9_105
*1513 FILLER_0_9_111
*1514 FILLER_0_9_113
*1515 FILLER_0_9_125
*1516 FILLER_0_9_137
*1517 FILLER_0_9_149
*1518 FILLER_0_9_15
*1519 FILLER_0_9_161
*1520 FILLER_0_9_167
*1521 FILLER_0_9_169
*1522 FILLER_0_9_181
*1523 FILLER_0_9_193
*1524 FILLER_0_9_205
*1525 FILLER_0_9_217
*1526 FILLER_0_9_223
*1527 FILLER_0_9_225
*1528 FILLER_0_9_237
*1529 FILLER_0_9_249
*1530 FILLER_0_9_261
*1531 FILLER_0_9_27
*1532 FILLER_0_9_273
*1533 FILLER_0_9_279
*1534 FILLER_0_9_281
*1535 FILLER_0_9_293
*1536 FILLER_0_9_3
*1537 FILLER_0_9_305
*1538 FILLER_0_9_317
*1539 FILLER_0_9_329
*1540 FILLER_0_9_39
*1541 FILLER_0_9_51
*1542 FILLER_0_9_55
*1543 FILLER_0_9_57
*1544 FILLER_0_9_69
*1545 FILLER_0_9_81
*1546 FILLER_0_9_93
*1547 PHY_EDGE_ROW_0_Left_39
*1548 PHY_EDGE_ROW_0_Right_0
*1549 PHY_EDGE_ROW_10_Left_49
*1550 PHY_EDGE_ROW_10_Right_10
*1551 PHY_EDGE_ROW_11_Left_50
*1552 PHY_EDGE_ROW_11_Right_11
*1553 PHY_EDGE_ROW_12_Left_51
*1554 PHY_EDGE_ROW_12_Right_12
*1555 PHY_EDGE_ROW_13_Left_52
*1556 PHY_EDGE_ROW_13_Right_13
*1557 PHY_EDGE_ROW_14_Left_53
*1558 PHY_EDGE_ROW_14_Right_14
*1559 PHY_EDGE_ROW_15_Left_54
*1560 PHY_EDGE_ROW_15_Right_15
*1561 PHY_EDGE_ROW_16_Left_55
*1562 PHY_EDGE_ROW_16_Right_16
*1563 PHY_EDGE_ROW_17_Left_56
*1564 PHY_EDGE_ROW_17_Right_17