*SPEF "ieee 1481-1999"
*DESIGN "tt_um_ja1tye_tiny_cpu"
*DATE "05:01:28 Sunday April 07, 2024"
*VENDOR "The OpenROAD Project"
*PROGRAM "OpenROAD"
*VERSION "0889970d1790a2617e69f253221b8bd7626e51dc"
*DESIGN_FLOW "NAME_SCOPE LOCAL" "PIN_CAP NONE"
*DIVIDER /
*DELIMITER :
*BUS_DELIMITER []
*T_UNIT 1 NS
*C_UNIT 1 PF
*R_UNIT 1 OHM
*L_UNIT 1 HENRY

*NAME_MAP
*3 clk
*4 ena
*5 rst_n
*6 ui_in[0]
*7 ui_in[1]
*8 ui_in[2]
*9 ui_in[3]
*10 ui_in[4]
*11 ui_in[5]
*12 ui_in[6]
*13 ui_in[7]
*14 uio_in[0]
*15 uio_in[1]
*16 uio_in[2]
*17 uio_in[3]
*18 uio_in[4]
*19 uio_in[5]
*20 uio_in[6]
*21 uio_in[7]
*22 uio_oe[0]
*23 uio_oe[1]
*24 uio_oe[2]
*25 uio_oe[3]
*26 net8
*27 net9
*28 net10
*29 net11
*30 uio_out[0]
*31 uio_out[1]
*32 uio_out[2]
*33 uio_out[3]
*34 uio_out[4]
*35 uio_out[5]
*36 uio_out[6]
*37 uio_out[7]
*38 uo_out[0]
*39 uo_out[1]
*40 uo_out[2]
*41 uo_out[3]
*42 uo_out[4]
*43 uo_out[5]
*44 uo_out[6]
*45 uo_out[7]
*46 MCU\.ALU\.a_in\[0\]
*47 MCU\.ALU\.a_in\[1\]
*48 MCU\.ALU\.a_in\[2\]
*49 MCU\.ALU\.a_in\[3\]
*50 MCU\.ALU\.a_in\[4\]
*51 MCU\.ALU\.a_in\[5\]
*52 MCU\.ALU\.a_in\[6\]
*53 MCU\.ALU\.a_in\[7\]
*54 MCU\.ALU\.alu_op_in\[0\]
*55 MCU\.ALU\.alu_op_in\[1\]
*56 MCU\.ALU\.alu_op_in\[2\]
*57 MCU\.ALU\.alu_op_in\[3\]
*58 MCU\.ALU\.carry_in
*59 MCU\.ALU\.ovf_in
*60 MCU\.ALU\.status_in\[0\]
*61 MCU\.ALU\.status_in\[2\]
*62 MCU\.CPU_SEQ\.imm_type_in\[0\]
*63 MCU\.CPU_SEQ\.imm_type_in\[1\]
*64 MCU\.CPU_SEQ\.inst_type_in\[0\]
*65 MCU\.CPU_SEQ\.inst_type_in\[1\]
*66 MCU\.CPU_SEQ\.state\[0\]
*67 MCU\.CPU_SEQ\.state\[2\]
*68 MCU\.CPU_SEQ\.state\[3\]
*69 MCU\.CPU_SEQ\.state\[4\]
*70 MCU\.CPU_SEQ\.state\[5\]
*71 MCU\.CPU_SEQ\.state\[6\]
*72 MCU\.CPU_SEQ\.state\[8\]
*73 MCU\.ID\.dst_addr_out\[0\]
*74 MCU\.ID\.dst_addr_out\[1\]
*75 MCU\.ID\.dst_addr_out\[2\]
*76 MCU\.ID\.imm_out\[4\]
*77 MCU\.ID\.inst_in\[10\]
*78 MCU\.ID\.inst_in\[8\]
*79 MCU\.ID\.inst_in\[9\]
*80 MCU\.IR\.cond_in
*81 MCU\.IR\.ir_data_in\[0\]
*82 MCU\.IR\.ir_data_in\[10\]
*83 MCU\.IR\.ir_data_in\[11\]
*84 MCU\.IR\.ir_data_in\[12\]
*85 MCU\.IR\.ir_data_in\[13\]
*86 MCU\.IR\.ir_data_in\[14\]
*87 MCU\.IR\.ir_data_in\[15\]
*88 MCU\.IR\.ir_data_in\[1\]
*89 MCU\.IR\.ir_data_in\[2\]
*90 MCU\.IR\.ir_data_in\[3\]
*91 MCU\.IR\.ir_data_in\[4\]
*92 MCU\.IR\.ir_data_in\[5\]
*93 MCU\.IR\.ir_data_in\[6\]
*94 MCU\.IR\.ir_data_in\[7\]
*95 MCU\.IR\.ir_data_in\[8\]
*96 MCU\.IR\.ir_data_in\[9\]
*97 MCU\.PC\.pc_update_en_in
*98 MCU\.PC\.program_counter\[0\]
*99 MCU\.PC\.program_counter\[10\]
*100 MCU\.PC\.program_counter\[11\]
*101 MCU\.PC\.program_counter\[12\]
*102 MCU\.PC\.program_counter\[13\]
*103 MCU\.PC\.program_counter\[14\]
*104 MCU\.PC\.program_counter\[1\]
*105 MCU\.PC\.program_counter\[2\]
*106 MCU\.PC\.program_counter\[3\]
*107 MCU\.PC\.program_counter\[4\]
*108 MCU\.PC\.program_counter\[5\]
*109 MCU\.PC\.program_counter\[6\]
*110 MCU\.PC\.program_counter\[7\]
*111 MCU\.PC\.program_counter\[8\]
*112 MCU\.PC\.program_counter\[9\]
*113 MCU\.PERI\.busy_flag
*114 MCU\.PERI\.clock_counter\[0\]
*115 MCU\.PERI\.clock_counter\[1\]
*116 MCU\.PERI\.clock_counter\[2\]
*117 MCU\.PERI\.clock_div\[0\]
*118 MCU\.PERI\.clock_div\[1\]
*119 MCU\.PERI\.clock_div\[2\]
*120 MCU\.PERI\.clock_div\[3\]
*121 MCU\.PERI\.cs_out
*122 MCU\.PERI\.div_val_reg\[0\]
*123 MCU\.PERI\.div_val_reg\[1\]
*124 MCU\.PERI\.div_val_reg\[2\]
*125 MCU\.PERI\.div_val_reg\[3\]
*126 MCU\.PERI\.gpio_in_reg\[0\]
*127 MCU\.PERI\.gpio_in_reg\[1\]
*128 MCU\.PERI\.gpio_in_reg\[2\]
*129 MCU\.PERI\.gpio_in_reg\[3\]
*130 MCU\.PERI\.gpio_in_sync\[0\]
*131 MCU\.PERI\.gpio_in_sync\[1\]
*132 MCU\.PERI\.gpio_in_sync\[2\]
*133 MCU\.PERI\.gpio_in_sync\[3\]
*134 MCU\.PERI\.mosi_out
*135 MCU\.PERI\.periph_data_out\[0\]
*136 MCU\.PERI\.periph_data_out\[1\]
*137 MCU\.PERI\.periph_data_out\[2\]
*138 MCU\.PERI\.periph_data_out\[3\]
*139 MCU\.PERI\.periph_data_out\[4\]
*140 MCU\.PERI\.periph_data_out\[5\]
*141 MCU\.PERI\.periph_data_out\[6\]
*142 MCU\.PERI\.periph_data_out\[7\]
*143 MCU\.PERI\.periph_data_valid_out
*144 MCU\.PERI\.sclk_out
*145 MCU\.PERI\.shift_reg\[0\]
*146 MCU\.PERI\.shift_reg\[1\]
*147 MCU\.PERI\.shift_reg\[2\]
*148 MCU\.PERI\.shift_reg\[3\]
*149 MCU\.PERI\.shift_reg\[4\]
*150 MCU\.PERI\.shift_reg\[5\]
*151 MCU\.PERI\.shift_reg\[6\]
*152 MCU\.RF\.reg_file\[0\]\[0\]
*153 MCU\.RF\.reg_file\[0\]\[1\]
*154 MCU\.RF\.reg_file\[0\]\[2\]
*155 MCU\.RF\.reg_file\[0\]\[3\]
*156 MCU\.RF\.reg_file\[0\]\[4\]
*157 MCU\.RF\.reg_file\[0\]\[5\]
*158 MCU\.RF\.reg_file\[0\]\[6\]
*159 MCU\.RF\.reg_file\[0\]\[7\]
*160 MCU\.RF\.reg_file\[1\]\[0\]
*161 MCU\.RF\.reg_file\[1\]\[1\]
*162 MCU\.RF\.reg_file\[1\]\[2\]
*163 MCU\.RF\.reg_file\[1\]\[3\]
*164 MCU\.RF\.reg_file\[1\]\[4\]
*165 MCU\.RF\.reg_file\[1\]\[5\]
*166 MCU\.RF\.reg_file\[1\]\[6\]
*167 MCU\.RF\.reg_file\[1\]\[7\]
*168 MCU\.RF\.reg_file\[2\]\[0\]
*169 MCU\.RF\.reg_file\[2\]\[1\]
*170 MCU\.RF\.reg_file\[2\]\[2\]
*171 MCU\.RF\.reg_file\[2\]\[3\]
*172 MCU\.RF\.reg_file\[2\]\[4\]
*173 MCU\.RF\.reg_file\[2\]\[5\]
*174 MCU\.RF\.reg_file\[2\]\[6\]
*175 MCU\.RF\.reg_file\[2\]\[7\]
*176 MCU\.RF\.reg_file\[3\]\[0\]
*177 MCU\.RF\.reg_file\[3\]\[1\]
*178 MCU\.RF\.reg_file\[3\]\[2\]
*179 MCU\.RF\.reg_file\[3\]\[3\]
*180 MCU\.RF\.reg_file\[3\]\[4\]
*181 MCU\.RF\.reg_file\[3\]\[5\]
*182 MCU\.RF\.reg_file\[3\]\[6\]
*183 MCU\.RF\.reg_file\[3\]\[7\]
*184 MCU\.RF\.reg_file\[4\]\[0\]
*185 MCU\.RF\.reg_file\[4\]\[1\]
*186 MCU\.RF\.reg_file\[4\]\[2\]
*187 MCU\.RF\.reg_file\[4\]\[3\]
*188 MCU\.RF\.reg_file\[4\]\[4\]
*189 MCU\.RF\.reg_file\[4\]\[5\]
*190 MCU\.RF\.reg_file\[4\]\[6\]
*191 MCU\.RF\.reg_file\[4\]\[7\]
*192 MCU\.RF\.reg_file\[5\]\[0\]
*193 MCU\.RF\.reg_file\[5\]\[1\]
*194 MCU\.RF\.reg_file\[5\]\[2\]
*195 MCU\.RF\.reg_file\[5\]\[3\]
*196 MCU\.RF\.reg_file\[5\]\[4\]
*197 MCU\.RF\.reg_file\[5\]\[5\]
*198 MCU\.RF\.reg_file\[5\]\[6\]
*199 MCU\.RF\.reg_file\[5\]\[7\]
*200 MCU\.RF\.reg_file\[6\]\[0\]
*201 MCU\.RF\.reg_file\[6\]\[1\]
*202 MCU\.RF\.reg_file\[6\]\[2\]
*203 MCU\.RF\.reg_file\[6\]\[3\]
*204 MCU\.RF\.reg_file\[6\]\[4\]
*205 MCU\.RF\.reg_file\[6\]\[5\]
*206 MCU\.RF\.reg_file\[6\]\[6\]
*207 MCU\.RF\.reg_file\[6\]\[7\]
*208 MCU\.RF\.reg_file\[7\]\[0\]
*209 MCU\.RF\.reg_file\[7\]\[1\]
*210 MCU\.RF\.reg_file\[7\]\[2\]
*211 MCU\.RF\.reg_file\[7\]\[3\]
*212 MCU\.RF\.reg_file\[7\]\[4\]
*213 MCU\.RF\.reg_file\[7\]\[5\]
*214 MCU\.RF\.reg_file\[7\]\[6\]
*215 MCU\.RF\.reg_file\[7\]\[7\]
*216 MCU\.SPI_CTRL\.addr_reg\[0\]
*217 MCU\.SPI_CTRL\.addr_reg\[10\]
*218 MCU\.SPI_CTRL\.addr_reg\[11\]
*219 MCU\.SPI_CTRL\.addr_reg\[12\]
*220 MCU\.SPI_CTRL\.addr_reg\[13\]
*221 MCU\.SPI_CTRL\.addr_reg\[14\]
*222 MCU\.SPI_CTRL\.addr_reg\[15\]
*223 MCU\.SPI_CTRL\.addr_reg\[1\]
*224 MCU\.SPI_CTRL\.addr_reg\[2\]
*225 MCU\.SPI_CTRL\.addr_reg\[3\]
*226 MCU\.SPI_CTRL\.addr_reg\[4\]
*227 MCU\.SPI_CTRL\.addr_reg\[5\]
*228 MCU\.SPI_CTRL\.addr_reg\[6\]
*229 MCU\.SPI_CTRL\.addr_reg\[7\]
*230 MCU\.SPI_CTRL\.addr_reg\[8\]
*231 MCU\.SPI_CTRL\.addr_reg\[9\]
*232 MCU\.SPI_CTRL\.clock_counter\[0\]
*233 MCU\.SPI_CTRL\.clock_counter\[1\]
*234 MCU\.SPI_CTRL\.clock_counter\[2\]
*235 MCU\.SPI_CTRL\.clock_counter\[3\]
*236 MCU\.SPI_CTRL\.flash_cs_out
*237 MCU\.SPI_CTRL\.mem_type\[1\]
*238 MCU\.SPI_CTRL\.mem_type\[2\]
*239 MCU\.SPI_CTRL\.mem_type\[3\]
*240 MCU\.SPI_CTRL\.mosi_out
*241 MCU\.SPI_CTRL\.psram_cs_out
*242 MCU\.SPI_CTRL\.sclk_out
*243 MCU\.SPI_CTRL\.state\[0\]
*244 MCU\.SPI_CTRL\.state\[1\]
*245 MCU\.SPI_CTRL\.state\[2\]
*246 MCU\.SPI_CTRL\.state\[3\]
*247 MCU\.SR\.status_write_en_in
*248 _0000_
*249 _0001_
*250 _0002_
*251 _0003_
*252 _0004_
*253 _0005_
*254 _0006_
*255 _0007_
*256 _0008_
*257 _0009_
*258 _0010_
*259 _0011_
*260 _0012_
*261 _0013_
*262 _0014_
*263 _0015_
*264 _0016_
*265 _0017_
*266 _0018_
*267 _0019_
*268 _0020_
*269 _0021_
*270 _0022_
*271 _0023_
*272 _0024_
*273 _0025_
*274 _0026_
*275 _0027_
*276 _0028_
*277 _0029_
*278 _0030_
*279 _0031_
*280 _0032_
*281 _0033_
*282 _0034_
*283 _0035_
*284 _0036_
*285 _0037_
*286 _0038_
*287 _0039_
*288 _0040_
*289 _0041_
*290 _0042_
*291 _0043_
*292 _0044_
*293 _0045_
*294 _0046_
*295 _0047_
*296 _0048_
*297 _0049_
*298 _0050_
*299 _0051_
*300 _0052_
*301 _0053_
*302 _0054_
*303 _0055_
*304 _0056_
*305 _0057_
*306 _0058_
*307 _0059_
*308 _0060_
*309 _0061_
*310 _0062_
*311 _0063_
*312 _0064_
*313 _0065_
*314 _0066_
*315 _0067_
*316 _0068_
*317 _0069_
*318 _0070_
*319 _0071_
*320 _0072_
*321 _0073_
*322 _0074_
*323 _0075_
*324 _0076_
*325 _0077_
*326 _0078_
*327 _0079_
*328 _0080_
*329 _0081_
*330 _0082_
*331 _0083_
*332 _0084_
*333 _0085_
*334 _0086_
*335 _0087_
*336 _0088_
*337 _0089_
*338 _0090_
*339 _0091_
*340 _0092_
*341 _0093_
*342 _0094_
*343 _0095_
*344 _0096_
*345 _0097_
*346 _0098_
*347 _0099_
*348 _0100_
*349 _0101_
*350 _0102_
*351 _0103_
*352 _0104_
*353 _0105_
*354 _0106_
*355 _0107_
*356 _0108_
*357 _0109_
*358 _0110_
*359 _0111_
*360 _0112_
*361 _0113_
*362 _0114_
*363 _0115_
*364 _0116_
*365 _0117_
*366 _0118_
*367 _0119_
*368 _0120_
*369 _0121_
*370 _0122_
*371 _0123_
*372 _0124_
*373 _0125_
*374 _0126_
*375 _0127_
*376 _0128_
*377 _0129_
*378 _0130_
*379 _0131_
*380 _0132_
*381 _0133_
*382 _0134_
*383 _0135_
*384 _0136_
*385 _0137_
*386 _0138_
*387 _0139_
*388 _0140_
*389 _0141_
*390 _0142_
*391 _0143_
*392 _0144_
*393 _0145_
*394 _0146_
*395 _0147_
*396 _0148_
*397 _0149_
*398 _0150_
*399 _0151_
*400 _0152_
*401 _0153_
*402 _0154_
*403 _0155_
*404 _0156_
*405 _0157_
*406 _0158_
*407 _0159_
*408 _0160_
*409 _0161_
*410 _0162_
*411 _0163_
*412 _0164_
*413 _0165_
*414 _0166_
*415 _0167_
*416 _0168_
*417 _0169_
*418 _0170_
*419 _0171_
*420 _0172_
*421 _0173_
*422 _0174_
*423 _0175_
*424 _0176_
*425 _0177_
*426 _0178_
*427 _0179_
*428 _0180_
*429 _0181_
*430 _0182_
*431 _0183_
*432 _0184_
*433 _0185_
*434 _0186_
*435 _0187_
*436 _0188_
*437 _0189_
*438 _0190_
*439 _0191_
*440 _0192_
*441 _0193_
*442 _0194_
*443 _0195_
*444 _0196_
*445 _0197_
*446 _0198_
*447 _0199_
*448 _0200_
*449 _0201_
*450 _0202_
*451 _0203_
*452 _0204_
*453 _0205_
*454 _0206_
*455 _0207_
*456 _0208_
*457 _0209_
*458 _0210_
*459 _0211_
*460 _0212_
*461 _0213_
*462 _0214_
*463 _0215_
*464 _0216_
*465 _0217_
*466 _0218_
*467 _0219_
*468 _0220_
*469 _0221_
*470 _0222_
*471 _0223_
*472 _0224_
*473 _0225_
*474 _0226_
*475 _0227_
*476 _0228_
*477 _0229_
*478 _0230_
*479 _0231_
*480 _0232_
*481 _0233_
*482 _0234_
*483 _0235_
*484 _0236_
*485 _0237_
*486 _0238_
*487 _0239_
*488 _0240_
*489 _0241_
*490 _0242_
*491 _0243_
*492 _0244_
*493 _0245_
*494 _0246_
*495 _0247_
*496 _0248_
*497 _0249_
*498 _0250_
*499 _0251_
*500 _0252_
*501 _0253_
*502 _0254_
*503 _0255_
*504 _0256_
*505 _0257_
*506 _0258_
*507 _0259_
*508 _0260_
*509 _0261_
*510 _0262_
*511 _0263_
*512 _0264_
*513 _0265_
*514 _0266_
*515 _0267_
*516 _0268_
*517 _0269_
*518 _0270_
*519 _0271_
*520 _0272_
*521 _0273_
*522 _0274_
*523 _0275_
*524 _0276_
*525 _0277_
*526 _0278_
*527 _0279_
*528 _0280_
*529 _0281_
*530 _0282_
*531 _0283_
*532 _0284_
*533 _0285_
*534 _0286_
*535 _0287_
*536 _0288_
*537 _0289_
*538 _0290_
*539 _0291_
*540 _0292_
*541 _0293_
*542 _0294_
*543 _0295_
*544 _0296_
*545 _0297_
*546 _0298_
*547 _0299_
*548 _0300_
*549 _0301_
*550 _0302_
*551 _0303_
*552 _0304_
*553 _0305_
*554 _0306_
*555 _0307_
*556 _0308_
*557 _0309_
*558 _0310_
*559 _0311_
*560 _0312_
*561 _0313_
*562 _0314_
*563 _0315_
*564 _0316_
*565 _0317_
*566 _0318_
*567 _0319_
*568 _0320_
*569 _0321_
*570 _0322_
*571 _0323_
*572 _0324_
*573 _0325_
*574 _0326_
*575 _0327_
*576 _0328_
*577 _0329_
*578 _0330_
*579 _0331_
*580 _0332_
*581 _0333_
*582 _0334_
*583 _0335_
*584 _0336_
*585 _0337_
*586 _0338_
*587 _0339_
*588 _0340_
*589 _0341_
*590 _0342_
*591 _0343_
*592 _0344_
*593 _0345_
*594 _0346_
*595 _0347_
*596 _0348_
*597 _0349_
*598 _0350_
*599 _0351_
*600 _0352_
*601 _0353_
*602 _0354_
*603 _0355_
*604 _0356_
*605 _0357_
*606 _0358_
*607 _0359_
*608 _0360_
*609 _0361_
*610 _0362_
*611 _0363_
*612 _0364_
*613 _0365_
*614 _0366_
*615 _0367_
*616 _0368_
*617 _0369_
*618 _0370_
*619 _0371_
*620 _0372_
*621 _0373_
*622 _0374_
*623 _0375_
*624 _0376_
*625 _0377_
*626 _0378_
*627 _0379_
*628 _0380_
*629 _0381_
*630 _0382_
*631 _0383_
*632 _0384_
*633 _0385_
*634 _0386_
*635 _0387_
*636 _0388_
*637 _0389_
*638 _0390_
*639 _0391_
*640 _0392_
*641 _0393_
*642 _0394_
*643 _0395_
*644 _0396_
*645 _0397_
*646 _0398_
*647 _0399_
*648 _0400_
*649 _0401_
*650 _0402_
*651 _0403_
*652 _0404_
*653 _0405_
*654 _0406_
*655 _0407_
*656 _0408_
*657 _0409_
*658 _0410_
*659 _0411_
*660 _0412_
*661 _0413_
*662 _0414_
*663 _0415_
*664 _0416_
*665 _0417_
*666 _0418_
*667 _0419_
*668 _0420_
*669 _0421_
*670 _0422_
*671 _0423_
*672 _0424_
*673 _0425_
*674 _0426_
*675 _0427_
*676 _0428_
*677 _0429_
*678 _0430_
*679 _0431_
*680 _0432_
*681 _0433_
*682 _0434_
*683 _0435_
*684 _0436_
*685 _0437_
*686 _0438_
*687 _0439_
*688 _0440_
*689 _0441_
*690 _0442_
*691 _0443_
*692 _0444_
*693 _0445_
*694 _0446_
*695 _0447_
*696 _0448_
*697 _0449_
*698 _0450_
*699 _0451_
*700 _0452_
*701 _0453_
*702 _0454_
*703 _0455_
*704 _0456_
*705 _0457_
*706 _0458_
*707 _0459_
*708 _0460_
*709 _0461_
*710 _0462_
*711 _0463_
*712 _0464_
*713 _0465_
*714 _0466_
*715 _0467_
*716 _0468_
*717 _0469_
*718 _0470_
*719 _0471_
*720 _0472_
*721 _0473_
*722 _0474_
*723 _0475_
*724 _0476_
*725 _0477_
*726 _0478_
*727 _0479_
*728 _0480_
*729 _0481_
*730 _0482_
*731 _0483_
*732 _0484_
*733 _0485_
*734 _0486_
*735 _0487_
*736 _0488_
*737 _0489_
*738 _0490_
*739 _0491_
*740 _0492_
*741 _0493_
*742 _0494_
*743 _0495_
*744 _0496_
*745 _0497_
*746 _0498_
*747 _0499_
*748 _0500_
*749 _0501_
*750 _0502_
*751 _0503_
*752 _0504_
*753 _0505_
*754 _0506_
*755 _0507_
*756 _0508_
*757 _0509_
*758 _0510_
*759 _0511_
*760 _0512_
*761 _0513_
*762 _0514_
*763 _0515_
*764 _0516_
*765 _0517_
*766 _0518_
*767 _0519_
*768 _0520_
*769 _0521_
*770 _0522_
*771 _0523_
*772 _0524_
*773 _0525_
*774 _0526_
*775 _0527_
*776 _0528_
*777 _0529_
*778 _0530_
*779 _0531_
*780 _0532_
*781 _0533_
*782 _0534_
*783 _0535_
*784 _0536_
*785 _0537_
*786 _0538_
*787 _0539_
*788 _0540_
*789 _0541_
*790 _0542_
*791 _0543_
*792 _0544_
*793 _0545_
*794 _0546_
*795 _0547_
*796 _0548_
*797 _0549_
*798 _0550_
*799 _0551_
*800 _0552_
*801 _0553_
*802 _0554_
*803 _0555_
*804 _0556_
*805 _0557_
*806 _0558_
*807 _0559_
*808 _0560_
*809 _0561_
*810 _0562_
*811 _0563_
*812 _0564_
*813 _0565_
*814 _0566_
*815 _0567_
*816 _0568_
*817 _0569_
*818 _0570_
*819 _0571_
*820 _0572_
*821 _0573_
*822 _0574_
*823 _0575_
*824 _0576_
*825 _0577_
*826 _0578_
*827 _0579_
*828 _0580_
*829 _0581_
*830 _0582_
*831 _0583_
*832 _0584_
*833 _0585_
*834 _0586_
*835 _0587_
*836 _0588_
*837 _0589_
*838 _0590_
*839 _0591_
*840 _0592_
*841 _0593_
*842 _0594_
*843 _0595_
*844 _0596_
*845 _0597_
*846 _0598_
*847 _0599_
*848 _0600_
*849 _0601_
*850 _0602_
*851 _0603_
*852 _0604_
*853 _0605_
*854 _0606_
*855 _0607_
*856 _0608_
*857 _0609_
*858 _0610_
*859 _0611_
*860 _0612_
*861 _0613_
*862 _0614_
*863 _0615_
*864 _0616_
*865 _0617_
*866 _0618_
*867 _0619_
*868 _0620_
*869 _0621_
*870 _0622_
*871 _0623_
*872 _0624_
*873 _0625_
*874 _0626_
*875 _0627_
*876 _0628_
*877 _0629_
*878 _0630_
*879 _0631_
*880 _0632_
*881 _0633_
*882 _0634_
*883 _0635_
*884 _0636_
*885 _0637_
*886 _0638_
*887 _0639_
*888 _0640_
*889 _0641_
*890 _0642_
*891 _0643_
*892 _0644_
*893 _0645_
*894 _0646_
*895 _0647_
*896 _0648_
*897 _0649_
*898 _0650_
*899 _0651_
*900 _0652_
*901 _0653_
*902 _0654_
*903 _0655_
*904 _0656_
*905 _0657_
*906 _0658_
*907 _0659_
*908 _0660_
*909 _0661_
*910 _0662_
*911 _0663_
*912 _0664_
*913 _0665_
*914 _0666_
*915 _0667_
*916 _0668_
*917 _0669_
*918 _0670_
*919 _0671_
*920 _0672_
*921 _0673_
*922 _0674_
*923 _0675_
*924 _0676_
*925 _0677_
*926 _0678_
*927 _0679_
*928 _0680_
*929 _0681_
*930 _0682_
*931 _0683_
*932 _0684_
*933 _0685_
*934 _0686_
*935 _0687_
*936 _0688_
*937 _0689_
*938 _0690_
*939 _0691_
*940 _0692_
*941 _0693_
*942 _0694_
*943 _0695_
*944 _0696_
*945 _0697_
*946 _0698_
*947 _0699_
*948 _0700_
*949 _0701_
*950 _0702_
*951 _0703_
*952 _0704_
*953 _0705_
*954 _0706_
*955 _0707_
*956 _0708_
*957 _0709_
*958 _0710_
*959 _0711_
*960 _0712_
*961 _0713_
*962 _0714_
*963 _0715_
*964 _0716_
*965 _0717_
*966 _0718_
*967 _0719_
*968 _0720_
*969 _0721_
*970 _0722_
*971 _0723_
*972 _0724_
*973 _0725_
*974 _0726_
*975 _0727_
*976 _0728_
*977 _0729_
*978 _0730_
*979 _0731_
*980 _0732_
*981 _0733_
*982 _0734_
*983 _0735_
*984 _0736_
*985 _0737_
*986 _0738_
*987 _0739_
*988 _0740_
*989 _0741_
*990 _0742_
*991 _0743_
*992 _0744_
*993 _0745_
*994 _0746_
*995 _0747_
*996 _0748_
*997 _0749_
*998 _0750_
*999 _0751_
*1000 _0752_
*1001 _0753_
*1002 _0754_
*1003 _0755_
*1004 _0756_
*1005 _0757_
*1006 _0758_
*1007 _0759_
*1008 _0760_
*1009 _0761_
*1010 _0762_
*1011 _0763_
*1012 _0764_
*1013 _0765_
*1014 _0766_
*1015 _0767_
*1016 _0768_
*1017 _0769_
*1018 _0770_
*1019 _0771_
*1020 _0772_
*1021 _0773_
*1022 _0774_
*1023 _0775_
*1024 _0776_
*1025 _0777_
*1026 _0778_
*1027 _0779_
*1028 _0780_
*1029 _0781_
*1030 _0782_
*1031 _0783_
*1032 _0784_
*1033 _0785_
*1034 _0786_
*1035 _0787_
*1036 _0788_
*1037 _0789_
*1038 _0790_
*1039 _0791_
*1040 _0792_
*1041 _0793_
*1042 _0794_
*1043 _0795_
*1044 _0796_
*1045 _0797_
*1046 _0798_
*1047 _0799_
*1048 _0800_
*1049 _0801_
*1050 _0802_
*1051 _0803_
*1052 _0804_
*1053 _0805_
*1054 _0806_
*1055 _0807_
*1056 _0808_
*1057 _0809_
*1058 _0810_
*1059 _0811_
*1060 _0812_
*1061 _0813_
*1062 _0814_
*1063 _0815_
*1064 _0816_
*1065 _0817_
*1066 _0818_
*1067 _0819_
*1068 _0820_
*1069 _0821_
*1070 _0822_
*1071 _0823_
*1072 _0824_
*1073 _0825_
*1074 _0826_
*1075 _0827_
*1076 _0828_
*1077 _0829_
*1078 _0830_
*1079 _0831_
*1080 _0832_
*1081 _0833_
*1082 _0834_
*1083 _0835_
*1084 _0836_
*1085 _0837_
*1086 _0838_
*1087 _0839_
*1088 _0840_
*1089 _0841_
*1090 _0842_
*1091 _0843_
*1092 _0844_
*1093 _0845_
*1094 _0846_
*1095 _0847_
*1096 _0848_
*1097 _0849_
*1098 _0850_
*1099 _0851_
*1100 _0852_
*1101 _0853_
*1102 _0854_
*1103 _0855_
*1104 _0856_
*1105 _0857_
*1106 _0858_
*1107 _0859_
*1108 _0860_
*1109 _0861_
*1110 _0862_
*1111 _0863_
*1112 _0864_
*1113 _0865_
*1114 _0866_
*1115 _0867_
*1116 _0868_
*1117 _0869_
*1118 _0870_
*1119 _0871_
*1120 _0872_
*1121 _0873_
*1122 _0874_
*1123 _0875_
*1124 _0876_
*1125 _0877_
*1126 _0878_
*1127 _0879_
*1128 _0880_
*1129 _0881_
*1130 _0882_
*1131 _0883_
*1132 _0884_
*1133 _0885_
*1134 _0886_
*1135 _0887_
*1136 _0888_
*1137 _0889_
*1138 _0890_
*1139 _0891_
*1140 _0892_
*1141 _0893_
*1142 _0894_
*1143 _0895_
*1144 _0896_
*1145 _0897_
*1146 _0898_
*1147 _0899_
*1148 _0900_
*1149 _0901_
*1150 _0902_
*1151 _0903_
*1152 _0904_
*1153 _0905_
*1154 _0906_
*1155 _0907_
*1156 _0908_
*1157 _0909_
*1158 _0910_
*1159 _0911_
*1160 _0912_
*1161 _0913_
*1162 _0914_
*1163 _0915_
*1164 _0916_
*1165 _0917_
*1166 _0918_
*1167 _0919_
*1168 _0920_
*1169 _0921_
*1170 _0922_
*1171 _0923_
*1172 _0924_
*1173 _0925_
*1174 _0926_
*1175 _0927_
*1176 _0928_
*1177 _0929_
*1178 _0930_
*1179 _0931_
*1180 _0932_
*1181 _0933_
*1182 _0934_
*1183 _0935_
*1184 _0936_
*1185 _0937_
*1186 _0938_
*1187 _0939_
*1188 _0940_
*1189 _0941_
*1190 _0942_
*1191 _0943_
*1192 _0944_
*1193 _0945_
*1194 _0946_
*1195 _0947_
*1196 _0948_
*1197 _0949_
*1198 _0950_
*1199 _0951_
*1200 _0952_
*1201 _0953_
*1202 _0954_
*1203 _0955_
*1204 _0956_
*1205 _0957_
*1206 _0958_
*1207 _0959_
*1208 _0960_
*1209 _0961_
*1210 _0962_
*1211 _0963_
*1212 _0964_
*1213 _0965_
*1214 _0966_
*1215 _0967_
*1216 _0968_
*1217 _0969_
*1218 _0970_
*1219 _0971_
*1220 clknet_0_clk
*1221 clknet_1_0__leaf_clk
*1222 clknet_1_1__leaf_clk
*1223 clknet_leaf_0_clk
*1224 clknet_leaf_10_clk
*1225 clknet_leaf_11_clk
*1226 clknet_leaf_1_clk
*1227 clknet_leaf_2_clk
*1228 clknet_leaf_3_clk
*1229 clknet_leaf_4_clk
*1230 clknet_leaf_5_clk
*1231 clknet_leaf_6_clk
*1232 clknet_leaf_7_clk
*1233 clknet_leaf_8_clk
*1234 clknet_leaf_9_clk
*1235 net1
*1236 net100
*1237 net101
*1238 net102
*1239 net103
*1240 net104
*1241 net105
*1242 net106
*1243 net107
*1244 net108
*1245 net109
*1246 net110
*1247 net111
*1248 net112
*1249 net113
*1250 net114
*1251 net115
*1252 net116
*1253 net117
*1254 net118
*1255 net119
*1256 net12
*1257 net120
*1258 net121
*1259 net122
*1260 net123
*1261 net124
*1262 net125
*1263 net126
*1264 net127
*1265 net128
*1266 net129
*1267 net13
*1268 net130
*1269 net131
*1270 net132
*1271 net133
*1272 net134
*1273 net135
*1274 net136
*1275 net137
*1276 net138
*1277 net139
*1278 net14
*1279 net140
*1280 net141
*1281 net15
*1282 net16
*1283 net17
*1284 net18
*1285 net19
*1286 net2
*1287 net20
*1288 net21
*1289 net22
*1290 net23
*1291 net24
*1292 net25
*1293 net26
*1294 net27
*1295 net28
*1296 net29
*1297 net3
*1298 net30
*1299 net31
*1300 net32
*1301 net33
*1302 net34
*1303 net35
*1304 net36
*1305 net37
*1306 net38
*1307 net39
*1308 net4
*1309 net40
*1310 net41
*1311 net42
*1312 net43
*1313 net44
*1314 net45
*1315 net46
*1316 net47
*1317 net48
*1318 net49
*1319 net5
*1320 net50
*1321 net51
*1322 net52
*1323 net53
*1324 net54
*1325 net55
*1326 net56
*1327 net57
*1328 net58
*1329 net59
*1330 net6
*1331 net60
*1332 net61
*1333 net62
*1334 net63
*1335 net64
*1336 net65
*1337 net66
*1338 net67
*1339 net68
*1340 net69
*1341 net7
*1342 net70
*1343 net71
*1344 net72
*1345 net73
*1346 net74
*1347 net75
*1348 net76
*1349 net77
*1350 net78
*1351 net79
*1352 net80
*1353 net81
*1354 net82
*1355 net83
*1356 net84
*1357 net85
*1358 net86
*1359 net87
*1360 net88
*1361 net89
*1362 net90
*1363 net91
*1364 net92
*1365 net93
*1366 net94
*1367 net95
*1368 net96
*1369 net97
*1370 net98
*1371 net99
*1372 ANTENNA_1
*1373 ANTENNA_2
*1374 ANTENNA_3
*1375 ANTENNA_4
*1376 ANTENNA_5
*1377 FILLER_0_0_129
*1378 FILLER_0_0_141
*1379 FILLER_0_0_147
*1380 FILLER_0_0_15
*1381 FILLER_0_0_164
*1382 FILLER_0_0_169
*1383 FILLER_0_0_194
*1384 FILLER_0_0_250
*1385 FILLER_0_0_279
*1386 FILLER_0_0_287
*1387 FILLER_0_0_3
*1388 FILLER_0_0_305
*1389 FILLER_0_0_333
*1390 FILLER_0_0_57
*1391 FILLER_0_0_67
*1392 FILLER_0_0_85
*1393 FILLER_0_10_106
*1394 FILLER_0_10_118
*1395 FILLER_0_10_124
*1396 FILLER_0_10_139
*1397 FILLER_0_10_141
*1398 FILLER_0_10_16
*1399 FILLER_0_10_187
*1400 FILLER_0_10_250
*1401 FILLER_0_10_292
*1402 FILLER_0_10_3
*1403 FILLER_0_10_318
*1404 FILLER_0_10_44
*1405 FILLER_0_10_61
*1406 FILLER_0_10_85
*1407 FILLER_0_10_9
*1408 FILLER_0_11_102
*1409 FILLER_0_11_106
*1410 FILLER_0_11_113
*1411 FILLER_0_11_157
*1412 FILLER_0_11_166
*1413 FILLER_0_11_17
*1414 FILLER_0_11_189
*1415 FILLER_0_11_223
*1416 FILLER_0_11_239
*1417 FILLER_0_11_260
*1418 FILLER_0_11_3
*1419 FILLER_0_11_31
*1420 FILLER_0_11_38
*1421 FILLER_0_11_46
*1422 FILLER_0_11_54
*1423 FILLER_0_11_60
*1424 FILLER_0_11_68
*1425 FILLER_0_11_74
*1426 FILLER_0_11_96
*1427 FILLER_0_12_104
*1428 FILLER_0_12_117
*1429 FILLER_0_12_127
*1430 FILLER_0_12_141
*1431 FILLER_0_12_158
*1432 FILLER_0_12_18
*1433 FILLER_0_12_191
*1434 FILLER_0_12_214
*1435 FILLER_0_12_231
*1436 FILLER_0_12_26
*1437 FILLER_0_12_287
*1438 FILLER_0_12_29
*1439 FILLER_0_12_3
*1440 FILLER_0_12_40
*1441 FILLER_0_12_95
*1442 FILLER_0_13_100
*1443 FILLER_0_13_111
*1444 FILLER_0_13_113
*1445 FILLER_0_13_119
*1446 FILLER_0_13_13
*1447 FILLER_0_13_143
*1448 FILLER_0_13_152
*1449 FILLER_0_13_175
*1450 FILLER_0_13_196
*1451 FILLER_0_13_202
*1452 FILLER_0_13_223
*1453 FILLER_0_13_24
*1454 FILLER_0_13_250
*1455 FILLER_0_13_274
*1456 FILLER_0_13_285
*1457 FILLER_0_13_3
*1458 FILLER_0_13_333
*1459 FILLER_0_13_42
*1460 FILLER_0_13_54
*1461 FILLER_0_13_65
*1462 FILLER_0_13_7
*1463 FILLER_0_13_91
*1464 FILLER_0_14_167
*1465 FILLER_0_14_177
*1466 FILLER_0_14_191
*1467 FILLER_0_14_195
*1468 FILLER_0_14_197
*1469 FILLER_0_14_214
*1470 FILLER_0_14_22
*1471 FILLER_0_14_231
*1472 FILLER_0_14_241
*1473 FILLER_0_14_253
*1474 FILLER_0_14_278
*1475 FILLER_0_14_299
*1476 FILLER_0_14_333
*1477 FILLER_0_14_39
*1478 FILLER_0_14_51
*1479 FILLER_0_14_61
*1480 FILLER_0_14_79
*1481 FILLER_0_14_83
*1482 FILLER_0_14_85
*1483 FILLER_0_15_116
*1484 FILLER_0_15_148
*1485 FILLER_0_15_152
*1486 FILLER_0_15_169
*1487 FILLER_0_15_173
*1488 FILLER_0_15_192
*1489 FILLER_0_15_200
*1490 FILLER_0_15_218
*1491 FILLER_0_15_249
*1492 FILLER_0_15_261
*1493 FILLER_0_15_268
*1494 FILLER_0_15_277
*1495 FILLER_0_15_287
*1496 FILLER_0_15_3
*1497 FILLER_0_15_317
*1498 FILLER_0_15_33
*1499 FILLER_0_15_48
*1500 FILLER_0_15_64
*1501 FILLER_0_15_74
*1502 FILLER_0_15_82
*1503 FILLER_0_15_94
*1504 FILLER_0_16_13
*1505 FILLER_0_16_139
*1506 FILLER_0_16_141
*1507 FILLER_0_16_153
*1508 FILLER_0_16_174
*1509 FILLER_0_16_178
*1510 FILLER_0_16_193
*1511 FILLER_0_16_218
*1512 FILLER_0_16_24
*1513 FILLER_0_16_240
*1514 FILLER_0_16_251
*1515 FILLER_0_16_260
*1516 FILLER_0_16_277
*1517 FILLER_0_16_3
*1518 FILLER_0_16_317
*1519 FILLER_0_16_44
*1520 FILLER_0_16_71
*1521 FILLER_0_16_81
*1522 FILLER_0_16_85
*1523 FILLER_0_16_93
*1524 FILLER_0_17_110
*1525 FILLER_0_17_119
*1526 FILLER_0_17_127
*1527 FILLER_0_17_153
*1528 FILLER_0_17_169
*1529 FILLER_0_17_179
*1530 FILLER_0_17_183
*1531 FILLER_0_17_19
*1532 FILLER_0_17_194
*1533 FILLER_0_17_204
*1534 FILLER_0_17_208
*1535 FILLER_0_17_220
*1536 FILLER_0_17_259
*1537 FILLER_0_17_268
*1538 FILLER_0_17_281
*1539 FILLER_0_17_316
*1540 FILLER_0_17_333
*1541 FILLER_0_17_45
*1542 FILLER_0_17_51
*1543 FILLER_0_17_55
*1544 FILLER_0_17_57
*1545 FILLER_0_17_65
*1546 FILLER_0_18_11
*1547 FILLER_0_18_110
*1548 FILLER_0_18_133
*1549 FILLER_0_18_139
*1550 FILLER_0_18_141
*1551 FILLER_0_18_159
*1552 FILLER_0_18_178
*1553 FILLER_0_18_249
*1554 FILLER_0_18_25
*1555 FILLER_0_18_269
*1556 FILLER_0_18_286
*1557 FILLER_0_18_3
*1558 FILLER_0_18_306
*1559 FILLER_0_18_37
*1560 FILLER_0_18_43
*1561 FILLER_0_18_52
*1562 FILLER_0_18_81
*1563 FILLER_0_18_98
*1564 FILLER_0_19_141
*1565 FILLER_0_19_192
*1566 FILLER_0_19_196
*1567 FILLER_0_19_207
*1568 FILLER_0_19_213
*1569 FILLER_0_19_225
*1570 FILLER_0_19_279
*1571 FILLER_0_19_281
*1572 FILLER_0_19_292
*1573 FILLER_0_19_325
*1574 FILLER_0_19_330
*1575 FILLER_0_19_334
*1576 FILLER_0_19_63
*1577 FILLER_0_19_88
*1578 FILLER_0_1_107
*1579 FILLER_0_1_113
*1580 FILLER_0_1_126
*1581 FILLER_0_1_147
*1582 FILLER_0_1_15
*1583 FILLER_0_1_151
*1584 FILLER_0_1_167
*1585 FILLER_0_1_222
*1586 FILLER_0_1_234
*1587 FILLER_0_1_251
*1588 FILLER_0_1_284
*1589 FILLER_0_1_3
*1590 FILLER_0_1_302
*1591 FILLER_0_1_318
*1592 FILLER_0_1_43
*1593 FILLER_0_20_11
*1594 FILLER_0_20_139
*1595 FILLER_0_20_141
*1596 FILLER_0_20_154
*1597 FILLER_0_20_167
*1598 FILLER_0_20_194
*1599 FILLER_0_20_20
*1600 FILLER_0_20_250
*1601 FILLER_0_20_256
*1602 FILLER_0_20_27
*1603 FILLER_0_20_281
*1604 FILLER_0_20_29
*1605 FILLER_0_20_299
*1606 FILLER_0_20_3
*1607 FILLER_0_20_313
*1608 FILLER_0_20_332
*1609 FILLER_0_20_44
*1610 FILLER_0_20_56
*1611 FILLER_0_20_75
*1612 FILLER_0_20_85
*1613 FILLER_0_21_101
*1614 FILLER_0_21_113
*1615 FILLER_0_21_166
*1616 FILLER_0_21_169
*1617 FILLER_0_21_175
*1618 FILLER_0_21_193
*1619 FILLER_0_21_211
*1620 FILLER_0_21_218
*1621 FILLER_0_21_235
*1622 FILLER_0_21_241
*1623 FILLER_0_21_278
*1624 FILLER_0_21_28
*1625 FILLER_0_21_281
*1626 FILLER_0_21_290
*1627 FILLER_0_21_298
*1628 FILLER_0_21_323
*1629 FILLER_0_21_330
*1630 FILLER_0_21_334
*1631 FILLER_0_21_54
*1632 FILLER_0_21_57
*1633 FILLER_0_21_78
*1634 FILLER_0_21_91
*1635 FILLER_0_22_11
*1636 FILLER_0_22_123
*1637 FILLER_0_22_133
*1638 FILLER_0_22_139
*1639 FILLER_0_22_159
*1640 FILLER_0_22_177
*1641 FILLER_0_22_181
*1642 FILLER_0_22_19
*1643 FILLER_0_22_190
*1644 FILLER_0_22_200
*1645 FILLER_0_22_213
*1646 FILLER_0_22_221
*1647 FILLER_0_22_251
*1648 FILLER_0_22_264
*1649 FILLER_0_22_27
*1650 FILLER_0_22_270
*1651 FILLER_0_22_288
*1652 FILLER_0_22_3
*1653 FILLER_0_22_307
*1654 FILLER_0_22_315
*1655 FILLER_0_22_33
*1656 FILLER_0_22_332
*1657 FILLER_0_22_45
*1658 FILLER_0_22_54
*1659 FILLER_0_22_90
*1660 FILLER_0_23_100
*1661 FILLER_0_23_111
*1662 FILLER_0_23_138
*1663 FILLER_0_23_220
*1664 FILLER_0_23_247
*1665 FILLER_0_23_255
*1666 FILLER_0_23_278
*1667 FILLER_0_23_281
*1668 FILLER_0_23_29
*1669 FILLER_0_23_293
*1670 FILLER_0_23_298
*1671 FILLER_0_23_3
*1672 FILLER_0_23_312
*1673 FILLER_0_23_323
*1674 FILLER_0_23_55
*1675 FILLER_0_23_57
*1676 FILLER_0_23_70
*1677 FILLER_0_24_113
*1678 FILLER_0_24_139
*1679 FILLER_0_24_141
*1680 FILLER_0_24_160
*1681 FILLER_0_24_169
*1682 FILLER_0_24_186
*1683 FILLER_0_24_19
*1684 FILLER_0_24_197
*1685 FILLER_0_24_207
*1686 FILLER_0_24_220
*1687 FILLER_0_24_232
*1688 FILLER_0_24_262
*1689 FILLER_0_24_27
*1690 FILLER_0_24_271
*1691 FILLER_0_24_286
*1692 FILLER_0_24_29
*1693 FILLER_0_24_322
*1694 FILLER_0_24_326
*1695 FILLER_0_24_35
*1696 FILLER_0_24_44
*1697 FILLER_0_24_54
*1698 FILLER_0_24_72
*1699 FILLER_0_25_110
*1700 FILLER_0_25_122
*1701 FILLER_0_25_142
*1702 FILLER_0_25_15
*1703 FILLER_0_25_19
*1704 FILLER_0_25_193
*1705 FILLER_0_25_201
*1706 FILLER_0_25_218
*1707 FILLER_0_25_279
*1708 FILLER_0_25_296
*1709 FILLER_0_25_3
*1710 FILLER_0_25_308
*1711 FILLER_0_25_312
*1712 FILLER_0_25_32
*1713 FILLER_0_25_334
*1714 FILLER_0_25_54
*1715 FILLER_0_25_78
*1716 FILLER_0_26_100
*1717 FILLER_0_26_138
*1718 FILLER_0_26_174
*1719 FILLER_0_26_185
*1720 FILLER_0_26_207
*1721 FILLER_0_26_217
*1722 FILLER_0_26_231
*1723 FILLER_0_26_250
*1724 FILLER_0_26_253
*1725 FILLER_0_26_263
*1726 FILLER_0_26_27
*1727 FILLER_0_26_280
*1728 FILLER_0_26_298
*1729 FILLER_0_26_309
*1730 FILLER_0_26_41
*1731 FILLER_0_26_55
*1732 FILLER_0_26_61
*1733 FILLER_0_26_65
*1734 FILLER_0_26_82
*1735 FILLER_0_26_90
*1736 FILLER_0_27_102
*1737 FILLER_0_27_129
*1738 FILLER_0_27_15
*1739 FILLER_0_27_152
*1740 FILLER_0_27_167
*1741 FILLER_0_27_183
*1742 FILLER_0_27_204
*1743 FILLER_0_27_220
*1744 FILLER_0_27_237
*1745 FILLER_0_27_26
*1746 FILLER_0_27_278
*1747 FILLER_0_27_284
*1748 FILLER_0_27_3
*1749 FILLER_0_27_302
*1750 FILLER_0_27_34
*1751 FILLER_0_27_43
*1752 FILLER_0_27_49
*1753 FILLER_0_27_55
*1754 FILLER_0_27_75
*1755 FILLER_0_27_79
*1756 FILLER_0_28_111
*1757 FILLER_0_28_138
*1758 FILLER_0_28_150
*1759 FILLER_0_28_170
*1760 FILLER_0_28_207
*1761 FILLER_0_28_23
*1762 FILLER_0_28_251
*1763 FILLER_0_28_262
*1764 FILLER_0_28_27
*1765 FILLER_0_28_289
*1766 FILLER_0_28_3
*1767 FILLER_0_28_309
*1768 FILLER_0_28_315
*1769 FILLER_0_28_320
*1770 FILLER_0_28_332
*1771 FILLER_0_28_94
*1772 FILLER_0_29_109
*1773 FILLER_0_29_113
*1774 FILLER_0_29_122
*1775 FILLER_0_29_133