*SPEF "ieee 1481-1999"
*DESIGN "tt_um_wokwi_395522292785089537"
*DATE "05:07:32 Friday April 19, 2024"
*VENDOR "The OpenROAD Project"
*PROGRAM "OpenROAD"
*VERSION "0889970d1790a2617e69f253221b8bd7626e51dc"
*DESIGN_FLOW "NAME_SCOPE LOCAL" "PIN_CAP NONE"
*DIVIDER /
*DELIMITER :
*BUS_DELIMITER []
*T_UNIT 1 NS
*C_UNIT 1 PF
*R_UNIT 1 OHM
*L_UNIT 1 HENRY

*NAME_MAP
*3 clk
*4 ena
*5 rst_n
*6 ui_in[0]
*7 ui_in[1]
*8 ui_in[2]
*9 ui_in[3]
*10 ui_in[4]
*11 ui_in[5]
*12 ui_in[6]
*13 ui_in[7]
*14 uio_in[0]
*15 uio_in[1]
*16 uio_in[2]
*17 uio_in[3]
*18 uio_in[4]
*19 uio_in[5]
*20 uio_in[6]
*21 uio_in[7]
*22 net6
*23 net7
*24 net8
*25 net9
*26 net10
*27 net11
*28 net12
*29 net13
*30 net14
*31 net15
*32 net16
*33 net17
*34 net18
*35 net19
*36 net20
*37 net21
*38 uo_out[0]
*39 uo_out[1]
*40 uo_out[2]
*41 uo_out[3]
*42 uo_out[4]
*43 uo_out[5]
*44 uo_out[6]
*45 net22
*46 _00_
*47 _01_
*48 _02_
*49 _03_
*50 _04_
*51 clknet_0_clk
*52 clknet_1_0__leaf_clk
*53 clknet_1_1__leaf_clk
*54 flop1\.d
*55 flop1\.q
*56 flop3\.d
*57 flop3\.q
*58 flop4\.d
*59 flop4\.q
*60 net1
*61 net2
*62 net23
*63 net24
*64 net25
*65 net3
*66 net4
*67 net5
*68 or1\.out
*69 FILLER_0_0_109
*70 FILLER_0_0_113
*71 FILLER_0_0_125
*72 FILLER_0_0_137
*73 FILLER_0_0_141
*74 FILLER_0_0_15
*75 FILLER_0_0_153
*76 FILLER_0_0_165
*77 FILLER_0_0_169
*78 FILLER_0_0_181
*79 FILLER_0_0_193
*80 FILLER_0_0_197
*81 FILLER_0_0_209
*82 FILLER_0_0_221
*83 FILLER_0_0_225
*84 FILLER_0_0_237
*85 FILLER_0_0_249
*86 FILLER_0_0_253
*87 FILLER_0_0_265
*88 FILLER_0_0_27
*89 FILLER_0_0_277
*90 FILLER_0_0_281
*91 FILLER_0_0_29
*92 FILLER_0_0_293
*93 FILLER_0_0_3
*94 FILLER_0_0_305
*95 FILLER_0_0_309
*96 FILLER_0_0_321
*97 FILLER_0_0_333
*98 FILLER_0_0_41
*99 FILLER_0_0_53
*100 FILLER_0_0_57
*101 FILLER_0_0_69
*102 FILLER_0_0_81
*103 FILLER_0_0_85
*104 FILLER_0_0_97
*105 FILLER_0_10_109
*106 FILLER_0_10_121
*107 FILLER_0_10_133
*108 FILLER_0_10_139
*109 FILLER_0_10_141
*110 FILLER_0_10_15
*111 FILLER_0_10_153
*112 FILLER_0_10_165
*113 FILLER_0_10_177
*114 FILLER_0_10_189
*115 FILLER_0_10_195
*116 FILLER_0_10_197
*117 FILLER_0_10_209
*118 FILLER_0_10_221
*119 FILLER_0_10_233
*120 FILLER_0_10_245
*121 FILLER_0_10_251
*122 FILLER_0_10_253
*123 FILLER_0_10_265
*124 FILLER_0_10_27
*125 FILLER_0_10_277
*126 FILLER_0_10_289
*127 FILLER_0_10_29
*128 FILLER_0_10_3
*129 FILLER_0_10_301
*130 FILLER_0_10_307
*131 FILLER_0_10_309
*132 FILLER_0_10_321
*133 FILLER_0_10_333
*134 FILLER_0_10_41
*135 FILLER_0_10_53
*136 FILLER_0_10_65
*137 FILLER_0_10_77
*138 FILLER_0_10_83
*139 FILLER_0_10_85
*140 FILLER_0_10_97
*141 FILLER_0_11_105
*142 FILLER_0_11_111
*143 FILLER_0_11_113
*144 FILLER_0_11_125
*145 FILLER_0_11_137
*146 FILLER_0_11_149
*147 FILLER_0_11_15
*148 FILLER_0_11_161
*149 FILLER_0_11_167
*150 FILLER_0_11_169
*151 FILLER_0_11_181
*152 FILLER_0_11_193
*153 FILLER_0_11_205
*154 FILLER_0_11_217
*155 FILLER_0_11_223
*156 FILLER_0_11_225
*157 FILLER_0_11_237
*158 FILLER_0_11_249
*159 FILLER_0_11_261
*160 FILLER_0_11_27
*161 FILLER_0_11_273
*162 FILLER_0_11_279
*163 FILLER_0_11_281
*164 FILLER_0_11_293
*165 FILLER_0_11_3
*166 FILLER_0_11_305
*167 FILLER_0_11_317
*168 FILLER_0_11_329
*169 FILLER_0_11_39
*170 FILLER_0_11_51
*171 FILLER_0_11_55
*172 FILLER_0_11_57
*173 FILLER_0_11_69
*174 FILLER_0_11_81
*175 FILLER_0_11_93
*176 FILLER_0_12_109
*177 FILLER_0_12_121
*178 FILLER_0_12_133
*179 FILLER_0_12_139
*180 FILLER_0_12_141
*181 FILLER_0_12_15
*182 FILLER_0_12_153
*183 FILLER_0_12_165
*184 FILLER_0_12_177
*185 FILLER_0_12_189
*186 FILLER_0_12_195
*187 FILLER_0_12_197
*188 FILLER_0_12_209
*189 FILLER_0_12_221
*190 FILLER_0_12_233
*191 FILLER_0_12_245
*192 FILLER_0_12_251
*193 FILLER_0_12_253
*194 FILLER_0_12_265
*195 FILLER_0_12_27
*196 FILLER_0_12_277
*197 FILLER_0_12_289
*198 FILLER_0_12_29
*199 FILLER_0_12_3
*200 FILLER_0_12_301
*201 FILLER_0_12_307
*202 FILLER_0_12_309
*203 FILLER_0_12_321
*204 FILLER_0_12_333
*205 FILLER_0_12_41
*206 FILLER_0_12_53
*207 FILLER_0_12_65
*208 FILLER_0_12_77
*209 FILLER_0_12_83
*210 FILLER_0_12_85
*211 FILLER_0_12_97
*212 FILLER_0_13_105
*213 FILLER_0_13_111
*214 FILLER_0_13_113
*215 FILLER_0_13_125
*216 FILLER_0_13_137
*217 FILLER_0_13_149
*218 FILLER_0_13_15
*219 FILLER_0_13_161
*220 FILLER_0_13_167
*221 FILLER_0_13_169
*222 FILLER_0_13_181
*223 FILLER_0_13_193
*224 FILLER_0_13_205
*225 FILLER_0_13_217
*226 FILLER_0_13_223
*227 FILLER_0_13_225
*228 FILLER_0_13_237
*229 FILLER_0_13_249
*230 FILLER_0_13_261
*231 FILLER_0_13_27
*232 FILLER_0_13_273
*233 FILLER_0_13_279
*234 FILLER_0_13_281
*235 FILLER_0_13_293
*236 FILLER_0_13_3
*237 FILLER_0_13_305
*238 FILLER_0_13_317
*239 FILLER_0_13_329
*240 FILLER_0_13_39
*241 FILLER_0_13_51
*242 FILLER_0_13_55
*243 FILLER_0_13_57
*244 FILLER_0_13_69
*245 FILLER_0_13_81
*246 FILLER_0_13_93
*247 FILLER_0_14_109
*248 FILLER_0_14_121
*249 FILLER_0_14_133
*250 FILLER_0_14_139
*251 FILLER_0_14_141
*252 FILLER_0_14_15
*253 FILLER_0_14_153
*254 FILLER_0_14_165
*255 FILLER_0_14_177
*256 FILLER_0_14_189
*257 FILLER_0_14_195
*258 FILLER_0_14_197
*259 FILLER_0_14_209
*260 FILLER_0_14_221
*261 FILLER_0_14_233
*262 FILLER_0_14_245
*263 FILLER_0_14_251
*264 FILLER_0_14_253
*265 FILLER_0_14_265
*266 FILLER_0_14_27
*267 FILLER_0_14_277
*268 FILLER_0_14_289
*269 FILLER_0_14_29
*270 FILLER_0_14_3
*271 FILLER_0_14_301
*272 FILLER_0_14_307
*273 FILLER_0_14_309
*274 FILLER_0_14_321
*275 FILLER_0_14_333
*276 FILLER_0_14_41
*277 FILLER_0_14_53
*278 FILLER_0_14_65
*279 FILLER_0_14_77
*280 FILLER_0_14_83
*281 FILLER_0_14_85
*282 FILLER_0_14_97
*283 FILLER_0_15_105
*284 FILLER_0_15_111
*285 FILLER_0_15_113
*286 FILLER_0_15_125
*287 FILLER_0_15_137
*288 FILLER_0_15_149
*289 FILLER_0_15_15
*290 FILLER_0_15_161
*291 FILLER_0_15_167
*292 FILLER_0_15_169
*293 FILLER_0_15_181
*294 FILLER_0_15_193
*295 FILLER_0_15_205
*296 FILLER_0_15_217
*297 FILLER_0_15_223
*298 FILLER_0_15_225
*299 FILLER_0_15_237
*300 FILLER_0_15_249
*301 FILLER_0_15_261
*302 FILLER_0_15_27
*303 FILLER_0_15_273
*304 FILLER_0_15_279
*305 FILLER_0_15_281
*306 FILLER_0_15_293
*307 FILLER_0_15_3
*308 FILLER_0_15_305
*309 FILLER_0_15_317
*310 FILLER_0_15_329
*311 FILLER_0_15_39
*312 FILLER_0_15_51
*313 FILLER_0_15_55
*314 FILLER_0_15_57
*315 FILLER_0_15_69
*316 FILLER_0_15_81
*317 FILLER_0_15_93
*318 FILLER_0_16_109
*319 FILLER_0_16_121
*320 FILLER_0_16_133
*321 FILLER_0_16_139
*322 FILLER_0_16_141
*323 FILLER_0_16_15
*324 FILLER_0_16_153
*325 FILLER_0_16_165
*326 FILLER_0_16_177
*327 FILLER_0_16_189
*328 FILLER_0_16_195
*329 FILLER_0_16_197
*330 FILLER_0_16_209
*331 FILLER_0_16_221
*332 FILLER_0_16_233
*333 FILLER_0_16_245
*334 FILLER_0_16_251
*335 FILLER_0_16_253
*336 FILLER_0_16_265
*337 FILLER_0_16_27
*338 FILLER_0_16_277
*339 FILLER_0_16_289
*340 FILLER_0_16_29
*341 FILLER_0_16_3
*342 FILLER_0_16_301
*343 FILLER_0_16_307
*344 FILLER_0_16_309
*345 FILLER_0_16_321
*346 FILLER_0_16_333
*347 FILLER_0_16_41
*348 FILLER_0_16_53
*349 FILLER_0_16_65
*350 FILLER_0_16_77
*351 FILLER_0_16_83
*352 FILLER_0_16_85
*353 FILLER_0_16_97
*354 FILLER_0_17_105
*355 FILLER_0_17_111
*356 FILLER_0_17_113
*357 FILLER_0_17_125
*358 FILLER_0_17_137
*359 FILLER_0_17_149
*360 FILLER_0_17_15
*361 FILLER_0_17_161
*362 FILLER_0_17_167
*363 FILLER_0_17_169
*364 FILLER_0_17_181
*365 FILLER_0_17_193
*366 FILLER_0_17_205
*367 FILLER_0_17_217
*368 FILLER_0_17_223
*369 FILLER_0_17_225
*370 FILLER_0_17_237
*371 FILLER_0_17_249
*372 FILLER_0_17_261
*373 FILLER_0_17_27
*374 FILLER_0_17_273
*375 FILLER_0_17_279
*376 FILLER_0_17_281
*377 FILLER_0_17_293
*378 FILLER_0_17_3
*379 FILLER_0_17_305
*380 FILLER_0_17_317
*381 FILLER_0_17_329
*382 FILLER_0_17_39
*383 FILLER_0_17_51
*384 FILLER_0_17_55
*385 FILLER_0_17_57
*386 FILLER_0_17_69
*387 FILLER_0_17_81
*388 FILLER_0_17_93
*389 FILLER_0_18_109
*390 FILLER_0_18_121
*391 FILLER_0_18_133
*392 FILLER_0_18_139
*393 FILLER_0_18_141
*394 FILLER_0_18_15
*395 FILLER_0_18_153
*396 FILLER_0_18_165
*397 FILLER_0_18_177
*398 FILLER_0_18_189
*399 FILLER_0_18_195
*400 FILLER_0_18_197
*401 FILLER_0_18_209
*402 FILLER_0_18_221
*403 FILLER_0_18_233
*404 FILLER_0_18_245
*405 FILLER_0_18_251
*406 FILLER_0_18_253
*407 FILLER_0_18_265
*408 FILLER_0_18_27
*409 FILLER_0_18_277
*410 FILLER_0_18_289
*411 FILLER_0_18_29
*412 FILLER_0_18_3
*413 FILLER_0_18_301
*414 FILLER_0_18_307
*415 FILLER_0_18_309
*416 FILLER_0_18_321
*417 FILLER_0_18_333
*418 FILLER_0_18_41
*419 FILLER_0_18_53
*420 FILLER_0_18_65
*421 FILLER_0_18_77
*422 FILLER_0_18_83
*423 FILLER_0_18_85
*424 FILLER_0_18_97
*425 FILLER_0_19_105
*426 FILLER_0_19_111
*427 FILLER_0_19_113
*428 FILLER_0_19_125
*429 FILLER_0_19_137
*430 FILLER_0_19_149
*431 FILLER_0_19_15
*432 FILLER_0_19_161
*433 FILLER_0_19_167
*434 FILLER_0_19_169
*435 FILLER_0_19_181
*436 FILLER_0_19_193
*437 FILLER_0_19_205
*438 FILLER_0_19_217
*439 FILLER_0_19_223
*440 FILLER_0_19_225
*441 FILLER_0_19_237
*442 FILLER_0_19_249
*443 FILLER_0_19_261
*444 FILLER_0_19_27
*445 FILLER_0_19_273
*446 FILLER_0_19_279
*447 FILLER_0_19_281
*448 FILLER_0_19_293
*449 FILLER_0_19_3
*450 FILLER_0_19_305
*451 FILLER_0_19_317
*452 FILLER_0_19_329
*453 FILLER_0_19_39
*454 FILLER_0_19_51
*455 FILLER_0_19_55
*456 FILLER_0_19_57
*457 FILLER_0_19_69
*458 FILLER_0_19_81
*459 FILLER_0_19_93
*460 FILLER_0_1_105
*461 FILLER_0_1_111
*462 FILLER_0_1_113
*463 FILLER_0_1_125
*464 FILLER_0_1_137
*465 FILLER_0_1_149
*466 FILLER_0_1_15
*467 FILLER_0_1_161
*468 FILLER_0_1_167
*469 FILLER_0_1_169
*470 FILLER_0_1_181
*471 FILLER_0_1_193
*472 FILLER_0_1_205
*473 FILLER_0_1_217
*474 FILLER_0_1_223
*475 FILLER_0_1_225
*476 FILLER_0_1_237
*477 FILLER_0_1_249
*478 FILLER_0_1_261
*479 FILLER_0_1_27
*480 FILLER_0_1_273
*481 FILLER_0_1_279
*482 FILLER_0_1_281
*483 FILLER_0_1_293
*484 FILLER_0_1_3
*485 FILLER_0_1_305
*486 FILLER_0_1_317
*487 FILLER_0_1_329
*488 FILLER_0_1_39
*489 FILLER_0_1_51
*490 FILLER_0_1_55
*491 FILLER_0_1_57
*492 FILLER_0_1_69
*493 FILLER_0_1_81
*494 FILLER_0_1_93
*495 FILLER_0_20_109
*496 FILLER_0_20_121
*497 FILLER_0_20_133
*498 FILLER_0_20_139
*499 FILLER_0_20_141
*500 FILLER_0_20_15
*501 FILLER_0_20_153
*502 FILLER_0_20_165
*503 FILLER_0_20_177
*504 FILLER_0_20_189
*505 FILLER_0_20_195
*506 FILLER_0_20_197
*507 FILLER_0_20_209
*508 FILLER_0_20_221
*509 FILLER_0_20_233
*510 FILLER_0_20_245
*511 FILLER_0_20_251
*512 FILLER_0_20_253
*513 FILLER_0_20_265
*514 FILLER_0_20_27
*515 FILLER_0_20_277
*516 FILLER_0_20_289
*517 FILLER_0_20_29
*518 FILLER_0_20_3
*519 FILLER_0_20_301
*520 FILLER_0_20_307
*521 FILLER_0_20_309
*522 FILLER_0_20_321
*523 FILLER_0_20_333
*524 FILLER_0_20_41
*525 FILLER_0_20_53
*526 FILLER_0_20_65
*527 FILLER_0_20_77
*528 FILLER_0_20_83
*529 FILLER_0_20_85
*530 FILLER_0_20_97
*531 FILLER_0_21_105
*532 FILLER_0_21_111
*533 FILLER_0_21_113
*534 FILLER_0_21_125
*535 FILLER_0_21_137
*536 FILLER_0_21_149
*537 FILLER_0_21_15
*538 FILLER_0_21_161
*539 FILLER_0_21_167
*540 FILLER_0_21_169
*541 FILLER_0_21_181
*542 FILLER_0_21_193
*543 FILLER_0_21_205
*544 FILLER_0_21_217
*545 FILLER_0_21_223
*546 FILLER_0_21_225
*547 FILLER_0_21_237
*548 FILLER_0_21_249
*549 FILLER_0_21_261
*550 FILLER_0_21_27
*551 FILLER_0_21_273
*552 FILLER_0_21_279
*553 FILLER_0_21_281
*554 FILLER_0_21_293
*555 FILLER_0_21_3
*556 FILLER_0_21_305
*557 FILLER_0_21_317
*558 FILLER_0_21_329
*559 FILLER_0_21_39
*560 FILLER_0_21_51
*561 FILLER_0_21_55
*562 FILLER_0_21_57
*563 FILLER_0_21_69
*564 FILLER_0_21_81
*565 FILLER_0_21_93
*566 FILLER_0_22_109
*567 FILLER_0_22_121
*568 FILLER_0_22_133
*569 FILLER_0_22_139
*570 FILLER_0_22_141
*571 FILLER_0_22_15
*572 FILLER_0_22_153
*573 FILLER_0_22_165
*574 FILLER_0_22_177
*575 FILLER_0_22_189
*576 FILLER_0_22_195
*577 FILLER_0_22_197
*578 FILLER_0_22_209
*579 FILLER_0_22_221
*580 FILLER_0_22_233
*581 FILLER_0_22_245
*582 FILLER_0_22_251
*583 FILLER_0_22_253
*584 FILLER_0_22_265
*585 FILLER_0_22_27
*586 FILLER_0_22_277
*587 FILLER_0_22_289
*588 FILLER_0_22_29
*589 FILLER_0_22_3
*590 FILLER_0_22_301
*591 FILLER_0_22_307
*592 FILLER_0_22_309
*593 FILLER_0_22_321
*594 FILLER_0_22_333
*595 FILLER_0_22_41
*596 FILLER_0_22_53
*597 FILLER_0_22_65
*598 FILLER_0_22_77
*599 FILLER_0_22_83
*600 FILLER_0_22_85
*601 FILLER_0_22_97
*602 FILLER_0_23_105
*603 FILLER_0_23_111
*604 FILLER_0_23_113
*605 FILLER_0_23_125
*606 FILLER_0_23_137
*607 FILLER_0_23_149
*608 FILLER_0_23_15
*609 FILLER_0_23_161
*610 FILLER_0_23_167
*611 FILLER_0_23_169
*612 FILLER_0_23_181
*613 FILLER_0_23_193
*614 FILLER_0_23_205
*615 FILLER_0_23_217
*616 FILLER_0_23_223
*617 FILLER_0_23_225
*618 FILLER_0_23_237
*619 FILLER_0_23_249
*620 FILLER_0_23_261
*621 FILLER_0_23_27
*622 FILLER_0_23_273
*623 FILLER_0_23_279
*624 FILLER_0_23_281
*625 FILLER_0_23_293
*626 FILLER_0_23_3
*627 FILLER_0_23_305
*628 FILLER_0_23_317
*629 FILLER_0_23_329
*630 FILLER_0_23_39
*631 FILLER_0_23_51
*632 FILLER_0_23_55
*633 FILLER_0_23_57
*634 FILLER_0_23_69
*635 FILLER_0_23_81
*636 FILLER_0_23_93
*637 FILLER_0_24_109
*638 FILLER_0_24_121
*639 FILLER_0_24_133
*640 FILLER_0_24_139
*641 FILLER_0_24_141
*642 FILLER_0_24_15
*643 FILLER_0_24_153
*644 FILLER_0_24_165
*645 FILLER_0_24_177
*646 FILLER_0_24_189
*647 FILLER_0_24_195
*648 FILLER_0_24_197
*649 FILLER_0_24_209
*650 FILLER_0_24_221
*651 FILLER_0_24_233
*652 FILLER_0_24_245
*653 FILLER_0_24_251
*654 FILLER_0_24_253
*655 FILLER_0_24_265
*656 FILLER_0_24_27
*657 FILLER_0_24_277
*658 FILLER_0_24_289
*659 FILLER_0_24_29
*660 FILLER_0_24_3
*661 FILLER_0_24_301
*662 FILLER_0_24_307
*663 FILLER_0_24_309
*664 FILLER_0_24_321
*665 FILLER_0_24_333
*666 FILLER_0_24_41
*667 FILLER_0_24_53
*668 FILLER_0_24_65
*669 FILLER_0_24_77
*670 FILLER_0_24_83
*671 FILLER_0_24_85
*672 FILLER_0_24_97
*673 FILLER_0_25_105
*674 FILLER_0_25_111
*675 FILLER_0_25_113
*676 FILLER_0_25_125
*677 FILLER_0_25_137
*678 FILLER_0_25_149
*679 FILLER_0_25_15
*680 FILLER_0_25_161
*681 FILLER_0_25_167
*682 FILLER_0_25_169
*683 FILLER_0_25_181
*684 FILLER_0_25_193
*685 FILLER_0_25_205
*686 FILLER_0_25_217
*687 FILLER_0_25_223
*688 FILLER_0_25_225
*689 FILLER_0_25_237
*690 FILLER_0_25_249
*691 FILLER_0_25_261
*692 FILLER_0_25_27
*693 FILLER_0_25_273
*694 FILLER_0_25_279
*695 FILLER_0_25_281
*696 FILLER_0_25_293
*697 FILLER_0_25_3
*698 FILLER_0_25_305
*699 FILLER_0_25_317
*700 FILLER_0_25_329
*701 FILLER_0_25_39
*702 FILLER_0_25_51
*703 FILLER_0_25_55
*704 FILLER_0_25_57
*705 FILLER_0_25_69
*706 FILLER_0_25_81
*707 FILLER_0_25_93
*708 FILLER_0_26_109
*709 FILLER_0_26_121
*710 FILLER_0_26_133
*711 FILLER_0_26_139
*712 FILLER_0_26_141
*713 FILLER_0_26_15
*714 FILLER_0_26_153
*715 FILLER_0_26_165
*716 FILLER_0_26_177
*717 FILLER_0_26_189
*718 FILLER_0_26_195
*719 FILLER_0_26_197
*720 FILLER_0_26_209
*721 FILLER_0_26_221
*722 FILLER_0_26_233
*723 FILLER_0_26_245
*724 FILLER_0_26_251
*725 FILLER_0_26_253
*726 FILLER_0_26_265
*727 FILLER_0_26_27
*728 FILLER_0_26_277
*729 FILLER_0_26_289
*730 FILLER_0_26_29
*731 FILLER_0_26_3
*732 FILLER_0_26_301
*733 FILLER_0_26_307
*734 FILLER_0_26_309
*735 FILLER_0_26_321
*736 FILLER_0_26_333
*737 FILLER_0_26_41
*738 FILLER_0_26_53
*739 FILLER_0_26_65
*740 FILLER_0_26_77
*741 FILLER_0_26_83
*742 FILLER_0_26_85
*743 FILLER_0_26_97
*744 FILLER_0_27_105
*745 FILLER_0_27_111
*746 FILLER_0_27_113
*747 FILLER_0_27_125
*748 FILLER_0_27_137
*749 FILLER_0_27_149
*750 FILLER_0_27_15
*751 FILLER_0_27_161
*752 FILLER_0_27_167
*753 FILLER_0_27_169
*754 FILLER_0_27_181
*755 FILLER_0_27_193
*756 FILLER_0_27_205
*757 FILLER_0_27_217
*758 FILLER_0_27_223
*759 FILLER_0_27_225
*760 FILLER_0_27_237
*761 FILLER_0_27_249
*762 FILLER_0_27_261
*763 FILLER_0_27_27
*764 FILLER_0_27_273
*765 FILLER_0_27_279
*766 FILLER_0_27_281
*767 FILLER_0_27_293
*768 FILLER_0_27_3
*769 FILLER_0_27_305
*770 FILLER_0_27_317
*771 FILLER_0_27_329
*772 FILLER_0_27_39
*773 FILLER_0_27_51
*774 FILLER_0_27_55
*775 FILLER_0_27_57
*776 FILLER_0_27_69
*777 FILLER_0_27_81
*778 FILLER_0_27_93
*779 FILLER_0_28_109
*780 FILLER_0_28_121
*781 FILLER_0_28_133
*782 FILLER_0_28_139
*783 FILLER_0_28_141
*784 FILLER_0_28_15
*785 FILLER_0_28_153
*786 FILLER_0_28_165
*787 FILLER_0_28_177
*788 FILLER_0_28_189
*789 FILLER_0_28_195
*790 FILLER_0_28_197
*791 FILLER_0_28_209
*792 FILLER_0_28_221
*793 FILLER_0_28_233
*794 FILLER_0_28_245
*795 FILLER_0_28_251
*796 FILLER_0_28_253
*797 FILLER_0_28_265
*798 FILLER_0_28_27
*799 FILLER_0_28_277
*800 FILLER_0_28_289
*801 FILLER_0_28_29
*802 FILLER_0_28_3
*803 FILLER_0_28_301
*804 FILLER_0_28_307
*805 FILLER_0_28_309
*806 FILLER_0_28_321
*807 FILLER_0_28_333
*808 FILLER_0_28_41
*809 FILLER_0_28_53
*810 FILLER_0_28_65
*811 FILLER_0_28_77
*812 FILLER_0_28_83
*813 FILLER_0_28_85
*814 FILLER_0_28_97
*815 FILLER_0_29_105
*816 FILLER_0_29_111
*817 FILLER_0_29_113
*818 FILLER_0_29_125
*819 FILLER_0_29_137
*820 FILLER_0_29_149
*821 FILLER_0_29_15
*822 FILLER_0_29_161
*823 FILLER_0_29_167
*824 FILLER_0_29_169
*825 FILLER_0_29_181
*826 FILLER_0_29_193
*827 FILLER_0_29_205
*828 FILLER_0_29_217
*829 FILLER_0_29_223
*830 FILLER_0_29_225
*831 FILLER_0_29_237
*832 FILLER_0_29_249
*833 FILLER_0_29_261
*834 FILLER_0_29_27
*835 FILLER_0_29_273
*836 FILLER_0_29_279
*837 FILLER_0_29_281
*838 FILLER_0_29_293
*839 FILLER_0_29_3
*840 FILLER_0_29_305
*841 FILLER_0_29_317
*842 FILLER_0_29_329
*843 FILLER_0_29_39
*844 FILLER_0_29_51
*845 FILLER_0_29_55
*846 FILLER_0_29_57
*847 FILLER_0_29_69
*848 FILLER_0_29_81
*849 FILLER_0_29_93
*850 FILLER_0_2_109
*851 FILLER_0_2_121
*852 FILLER_0_2_133
*853 FILLER_0_2_139
*854 FILLER_0_2_141
*855 FILLER_0_2_15
*856 FILLER_0_2_153
*857 FILLER_0_2_165
*858 FILLER_0_2_177
*859 FILLER_0_2_189
*860 FILLER_0_2_195
*861 FILLER_0_2_197
*862 FILLER_0_2_209
*863 FILLER_0_2_221
*864 FILLER_0_2_233
*865 FILLER_0_2_245
*866 FILLER_0_2_251
*867 FILLER_0_2_253
*868 FILLER_0_2_265
*869 FILLER_0_2_27
*870 FILLER_0_2_277
*871 FILLER_0_2_289
*872 FILLER_0_2_29
*873 FILLER_0_2_3
*874 FILLER_0_2_301
*875 FILLER_0_2_307
*876 FILLER_0_2_309
*877 FILLER_0_2_321
*878 FILLER_0_2_333
*879 FILLER_0_2_41
*880 FILLER_0_2_53
*881 FILLER_0_2_65
*882 FILLER_0_2_77
*883 FILLER_0_2_83
*884 FILLER_0_2_85
*885 FILLER_0_2_97
*886 FILLER_0_30_109
*887 FILLER_0_30_121
*888 FILLER_0_30_133
*889 FILLER_0_30_139
*890 FILLER_0_30_141
*891 FILLER_0_30_15
*892 FILLER_0_30_153
*893 FILLER_0_30_165
*894 FILLER_0_30_177
*895 FILLER_0_30_189
*896 FILLER_0_30_195
*897 FILLER_0_30_197
*898 FILLER_0_30_209
*899 FILLER_0_30_221
*900 FILLER_0_30_233
*901 FILLER_0_30_245
*902 FILLER_0_30_251
*903 FILLER_0_30_253
*904 FILLER_0_30_265
*905 FILLER_0_30_27
*906 FILLER_0_30_277
*907 FILLER_0_30_289
*908 FILLER_0_30_29
*909 FILLER_0_30_3
*910 FILLER_0_30_301
*911 FILLER_0_30_307
*912 FILLER_0_30_309
*913 FILLER_0_30_321
*914 FILLER_0_30_333
*915 FILLER_0_30_41
*916 FILLER_0_30_53
*917 FILLER_0_30_65
*918 FILLER_0_30_77
*919 FILLER_0_30_83
*920 FILLER_0_30_85
*921 FILLER_0_30_97
*922 FILLER_0_31_105
*923 FILLER_0_31_111
*924 FILLER_0_31_113
*925 FILLER_0_31_125
*926 FILLER_0_31_137
*927 FILLER_0_31_149
*928 FILLER_0_31_15
*929 FILLER_0_31_161
*930 FILLER_0_31_167
*931 FILLER_0_31_169
*932 FILLER_0_31_181
*933 FILLER_0_31_193
*934 FILLER_0_31_205
*935 FILLER_0_31_217
*936 FILLER_0_31_223
*937 FILLER_0_31_225
*938 FILLER_0_31_237
*939 FILLER_0_31_249
*940 FILLER_0_31_261
*941 FILLER_0_31_27
*942 FILLER_0_31_273
*943 FILLER_0_31_279
*944 FILLER_0_31_281
*945 FILLER_0_31_293
*946 FILLER_0_31_3
*947 FILLER_0_31_305
*948 FILLER_0_31_317
*949 FILLER_0_31_329
*950 FILLER_0_31_39
*951 FILLER_0_31_51
*952 FILLER_0_31_55
*953 FILLER_0_31_57
*954 FILLER_0_31_69
*955 FILLER_0_31_81
*956 FILLER_0_31_93
*957 FILLER_0_32_109
*958 FILLER_0_32_121
*959 FILLER_0_32_133
*960 FILLER_0_32_139
*961 FILLER_0_32_141
*962 FILLER_0_32_15
*963 FILLER_0_32_153
*964 FILLER_0_32_165
*965 FILLER_0_32_177
*966 FILLER_0_32_189
*967 FILLER_0_32_195
*968 FILLER_0_32_197
*969 FILLER_0_32_209
*970 FILLER_0_32_221
*971 FILLER_0_32_233
*972 FILLER_0_32_245
*973 FILLER_0_32_251
*974 FILLER_0_32_253
*975 FILLER_0_32_265
*976 FILLER_0_32_27
*977 FILLER_0_32_277
*978 FILLER_0_32_289
*979 FILLER_0_32_29
*980 FILLER_0_32_3
*981 FILLER_0_32_301
*982 FILLER_0_32_307
*983 FILLER_0_32_309
*984 FILLER_0_32_321
*985 FILLER_0_32_333
*986 FILLER_0_32_41
*987 FILLER_0_32_53
*988 FILLER_0_32_65
*989 FILLER_0_32_77
*990 FILLER_0_32_83
*991 FILLER_0_32_85
*992 FILLER_0_32_97
*993 FILLER_0_33_105
*994 FILLER_0_33_111
*995 FILLER_0_33_113
*996 FILLER_0_33_125
*997 FILLER_0_33_137
*998 FILLER_0_33_149
*999 FILLER_0_33_15
*1000 FILLER_0_33_161
*1001 FILLER_0_33_167
*1002 FILLER_0_33_169
*1003 FILLER_0_33_181
*1004 FILLER_0_33_193
*1005 FILLER_0_33_205
*1006 FILLER_0_33_217
*1007 FILLER_0_33_223
*1008 FILLER_0_33_225
*1009 FILLER_0_33_237
*1010 FILLER_0_33_249
*1011 FILLER_0_33_261
*1012 FILLER_0_33_27
*1013 FILLER_0_33_273
*1014 FILLER_0_33_279
*1015 FILLER_0_33_281
*1016 FILLER_0_33_293
*1017 FILLER_0_33_3
*1018 FILLER_0_33_305
*1019 FILLER_0_33_317
*1020 FILLER_0_33_329
*1021 FILLER_0_33_39
*1022 FILLER_0_33_51
*1023 FILLER_0_33_55
*1024 FILLER_0_33_57
*1025 FILLER_0_33_69
*1026 FILLER_0_33_81
*1027 FILLER_0_33_93
*1028 FILLER_0_34_109
*1029 FILLER_0_34_121
*1030 FILLER_0_34_133
*1031 FILLER_0_34_139
*1032 FILLER_0_34_141
*1033 FILLER_0_34_15
*1034 FILLER_0_34_153
*1035 FILLER_0_34_165
*1036 FILLER_0_34_177
*1037 FILLER_0_34_189
*1038 FILLER_0_34_195
*1039 FILLER_0_34_197
*1040 FILLER_0_34_209
*1041 FILLER_0_34_221
*1042 FILLER_0_34_233
*1043 FILLER_0_34_245
*1044 FILLER_0_34_251
*1045 FILLER_0_34_253
*1046 FILLER_0_34_265
*1047 FILLER_0_34_27
*1048 FILLER_0_34_277
*1049 FILLER_0_34_289
*1050 FILLER_0_34_29
*1051 FILLER_0_34_3
*1052 FILLER_0_34_301
*1053 FILLER_0_34_307
*1054 FILLER_0_34_309
*1055 FILLER_0_34_321
*1056 FILLER_0_34_333
*1057 FILLER_0_34_41
*1058 FILLER_0_34_53
*1059 FILLER_0_34_65
*1060 FILLER_0_34_77
*1061 FILLER_0_34_83
*1062 FILLER_0_34_85
*1063 FILLER_0_34_97
*1064 FILLER_0_35_105
*1065 FILLER_0_35_111
*1066 FILLER_0_35_113
*1067 FILLER_0_35_125
*1068 FILLER_0_35_137
*1069 FILLER_0_35_149
*1070 FILLER_0_35_15
*1071 FILLER_0_35_161
*1072 FILLER_0_35_167
*1073 FILLER_0_35_169
*1074 FILLER_0_35_181
*1075 FILLER_0_35_193
*1076 FILLER_0_35_205
*1077 FILLER_0_35_217
*1078 FILLER_0_35_223
*1079 FILLER_0_35_225
*1080 FILLER_0_35_237
*1081 FILLER_0_35_249
*1082 FILLER_0_35_261
*1083 FILLER_0_35_27
*1084 FILLER_0_35_273
*1085 FILLER_0_35_279
*1086 FILLER_0_35_281
*1087 FILLER_0_35_293
*1088 FILLER_0_35_3
*1089 FILLER_0_35_305
*1090 FILLER_0_35_318
*1091 FILLER_0_35_330
*1092 FILLER_0_35_334
*1093 FILLER_0_35_39
*1094 FILLER_0_35_51
*1095 FILLER_0_35_55
*1096 FILLER_0_35_57
*1097 FILLER_0_35_69
*1098 FILLER_0_35_81
*1099 FILLER_0_35_93
*1100 FILLER_0_36_109
*1101 FILLER_0_36_121
*1102 FILLER_0_36_133
*1103 FILLER_0_36_139
*1104 FILLER_0_36_141
*1105 FILLER_0_36_15
*1106 FILLER_0_36_153
*1107 FILLER_0_36_165
*1108 FILLER_0_36_177
*1109 FILLER_0_36_189
*1110 FILLER_0_36_195
*1111 FILLER_0_36_197
*1112 FILLER_0_36_209
*1113 FILLER_0_36_221
*1114 FILLER_0_36_233
*1115 FILLER_0_36_245
*1116 FILLER_0_36_251
*1117 FILLER_0_36_253
*1118 FILLER_0_36_265
*1119 FILLER_0_36_269
*1120 FILLER_0_36_27
*1121 FILLER_0_36_286
*1122 FILLER_0_36_29
*1123 FILLER_0_36_296
*1124 FILLER_0_36_3
*1125 FILLER_0_36_325
*1126 FILLER_0_36_332
*1127 FILLER_0_36_41
*1128 FILLER_0_36_53
*1129 FILLER_0_36_65
*1130 FILLER_0_36_77
*1131 FILLER_0_36_83
*1132 FILLER_0_36_85
*1133 FILLER_0_36_97
*1134 FILLER_0_37_105
*1135 FILLER_0_37_111
*1136 FILLER_0_37_113
*1137 FILLER_0_37_125
*1138 FILLER_0_37_137
*1139 FILLER_0_37_149
*1140 FILLER_0_37_15
*1141 FILLER_0_37_164
*1142 FILLER_0_37_169
*1143 FILLER_0_37_181
*1144 FILLER_0_37_193
*1145 FILLER_0_37_205
*1146 FILLER_0_37_217
*1147 FILLER_0_37_223
*1148 FILLER_0_37_225
*1149 FILLER_0_37_237
*1150 FILLER_0_37_249
*1151 FILLER_0_37_261
*1152 FILLER_0_37_27
*1153 FILLER_0_37_3
*1154 FILLER_0_37_301
*1155 FILLER_0_37_334
*1156 FILLER_0_37_39
*1157 FILLER_0_37_51
*1158 FILLER_0_37_55
*1159 FILLER_0_37_57
*1160 FILLER_0_37_69
*1161 FILLER_0_37_81
*1162 FILLER_0_37_93
*1163 FILLER_0_38_10
*1164 FILLER_0_38_102
*1165 FILLER_0_38_106
*1166 FILLER_0_38_110
*1167 FILLER_0_38_113
*1168 FILLER_0_38_118
*1169 FILLER_0_38_122
*1170 FILLER_0_38_126
*1171 FILLER_0_38_130
*1172 FILLER_0_38_134
*1173 FILLER_0_38_14
*1174 FILLER_0_38_141
*1175 FILLER_0_38_149
*1176 FILLER_0_38_158
*1177 FILLER_0_38_164
*1178 FILLER_0_38_169
*1179 FILLER_0_38_18
*1180 FILLER_0_38_180
*1181 FILLER_0_38_186
*1182 FILLER_0_38_191
*1183 FILLER_0_38_195
*1184 FILLER_0_38_208
*1185 FILLER_0_38_22
*1186 FILLER_0_38_220
*1187 FILLER_0_38_225
*1188 FILLER_0_38_237
*1189 FILLER_0_38_249
*1190 FILLER_0_38_253
*1191 FILLER_0_38_265
*1192 FILLER_0_38_284
*1193 FILLER_0_38_307
*1194 FILLER_0_38_32
*1195 FILLER_0_38_38
*1196 FILLER_0_38_42
*1197 FILLER_0_38_46
*1198 FILLER_0_38_50
*1199 FILLER_0_38_54
*1200 FILLER_0_38_57
*1201 FILLER_0_38_6
*1202 FILLER_0_38_62
*1203 FILLER_0_38_66
*1204 FILLER_0_38_70
*1205 FILLER_0_38_74
*1206 FILLER_0_38_78
*1207 FILLER_0_38_88
*1208 FILLER_0_38_94
*1209 FILLER_0_38_98
*1210 FILLER_0_3_105
*1211 FILLER_0_3_111
*1212 FILLER_0_3_113
*1213 FILLER_0_3_125
*1214 FILLER_0_3_137
*1215 FILLER_0_3_149
*1216 FILLER_0_3_15
*1217 FILLER_0_3_161
*1218 FILLER_0_3_167
*1219 FILLER_0_3_169
*1220 FILLER_0_3_181
*1221 FILLER_0_3_193
*1222 FILLER_0_3_205
*1223 FILLER_0_3_217
*1224 FILLER_0_3_223
*1225 FILLER_0_3_225
*1226 FILLER_0_3_237
*1227 FILLER_0_3_249
*1228 FILLER_0_3_261
*1229 FILLER_0_3_27
*1230 FILLER_0_3_273
*1231 FILLER_0_3_279
*1232 FILLER_0_3_281
*1233 FILLER_0_3_293
*1234 FILLER_0_3_3
*1235 FILLER_0_3_305
*1236 FILLER_0_3_317
*1237 FILLER_0_3_329
*1238 FILLER_0_3_39
*1239 FILLER_0_3_51
*1240 FILLER_0_3_55
*1241 FILLER_0_3_57
*1242 FILLER_0_3_69
*1243 FILLER_0_3_81
*1244 FILLER_0_3_93
*1245 FILLER_0_4_109
*1246 FILLER_0_4_121
*1247 FILLER_0_4_133
*1248 FILLER_0_4_139
*1249 FILLER_0_4_141
*1250 FILLER_0_4_15
*1251 FILLER_0_4_153
*1252 FILLER_0_4_165
*1253 FILLER_0_4_177
*1254 FILLER_0_4_189
*1255 FILLER_0_4_195
*1256 FILLER_0_4_197
*1257 FILLER_0_4_209
*1258 FILLER_0_4_221
*1259 FILLER_0_4_233
*1260 FILLER_0_4_245
*1261 FILLER_0_4_251
*1262 FILLER_0_4_253
*1263 FILLER_0_4_265
*1264 FILLER_0_4_27
*1265 FILLER_0_4_277
*1266 FILLER_0_4_289
*1267 FILLER_0_4_29
*1268 FILLER_0_4_3
*1269 FILLER_0_4_301
*1270 FILLER_0_4_307
*1271 FILLER_0_4_309
*1272 FILLER_0_4_321
*1273 FILLER_0_4_333
*1274 FILLER_0_4_41
*1275 FILLER_0_4_53
*1276 FILLER_0_4_65
*1277 FILLER_0_4_77
*1278 FILLER_0_4_83
*1279 FILLER_0_4_85
*1280 FILLER_0_4_97
*1281 FILLER_0_5_105
*1282 FILLER_0_5_111
*1283 FILLER_0_5_113
*1284 FILLER_0_5_125
*1285 FILLER_0_5_137
*1286 FILLER_0_5_149
*1287 FILLER_0_5_15
*1288 FILLER_0_5_161
*1289 FILLER_0_5_167
*1290 FILLER_0_5_169
*1291 FILLER_0_5_181
*1292 FILLER_0_5_193
*1293 FILLER_0_5_205
*1294 FILLER_0_5_217
*1295 FILLER_0_5_223
*1296 FILLER_0_5_225
*1297 FILLER_0_5_237
*1298 FILLER_0_5_249
*1299 FILLER_0_5_261
*1300 FILLER_0_5_27
*1301 FILLER_0_5_273
*1302 FILLER_0_5_279
*1303 FILLER_0_5_281
*1304 FILLER_0_5_293
*1305 FILLER_0_5_3
*1306 FILLER_0_5_305
*1307 FILLER_0_5_317
*1308 FILLER_0_5_329
*1309 FILLER_0_5_39
*1310 FILLER_0_5_51
*1311 FILLER_0_5_55
*1312 FILLER_0_5_57
*1313 FILLER_0_5_69
*1314 FILLER_0_5_81
*1315 FILLER_0_5_93
*1316 FILLER_0_6_109
*1317 FILLER_0_6_121
*1318 FILLER_0_6_133
*1319 FILLER_0_6_139
*1320 FILLER_0_6_141
*1321 FILLER_0_6_15
*1322 FILLER_0_6_153
*1323 FILLER_0_6_165
*1324 FILLER_0_6_177
*1325 FILLER_0_6_189
*1326 FILLER_0_6_195
*1327 FILLER_0_6_197
*1328 FILLER_0_6_209
*1329 FILLER_0_6_221
*1330 FILLER_0_6_233
*1331 FILLER_0_6_245
*1332 FILLER_0_6_251
*1333 FILLER_0_6_253
*1334 FILLER_0_6_265
*1335 FILLER_0_6_27
*1336 FILLER_0_6_277
*1337 FILLER_0_6_289
*1338 FILLER_0_6_29
*1339 FILLER_0_6_3
*1340 FILLER_0_6_301
*1341 FILLER_0_6_307
*1342 FILLER_0_6_309
*1343 FILLER_0_6_321
*1344 FILLER_0_6_333
*1345 FILLER_0_6_41
*1346 FILLER_0_6_53
*1347 FILLER_0_6_65
*1348 FILLER_0_6_77
*1349 FILLER_0_6_83
*1350 FILLER_0_6_85
*1351 FILLER_0_6_97
*1352 FILLER_0_7_105
*1353 FILLER_0_7_111
*1354 FILLER_0_7_113
*1355 FILLER_0_7_125
*1356 FILLER_0_7_137
*1357 FILLER_0_7_149
*1358 FILLER_0_7_15
*1359 FILLER_0_7_161
*1360 FILLER_0_7_167
*1361 FILLER_0_7_169
*1362 FILLER_0_7_181
*1363 FILLER_0_7_193
*1364 FILLER_0_7_205
*1365 FILLER_0_7_217
*1366 FILLER_0_7_223
*1367 FILLER_0_7_225
*1368 FILLER_0_7_237
*1369 FILLER_0_7_249
*1370 FILLER_0_7_261
*1371 FILLER_0_7_27
*1372 FILLER_0_7_273
*1373 FILLER_0_7_279
*1374 FILLER_0_7_281
*1375 FILLER_0_7_293
*1376 FILLER_0_7_3
*1377 FILLER_0_7_305
*1378 FILLER_0_7_317
*1379 FILLER_0_7_329
*1380 FILLER_0_7_39
*1381 FILLER_0_7_51
*1382 FILLER_0_7_55
*1383 FILLER_0_7_57
*1384 FILLER_0_7_69
*1385 FILLER_0_7_81
*1386 FILLER_0_7_93
*1387 FILLER_0_8_109
*1388 FILLER_0_8_121
*1389 FILLER_0_8_133
*1390 FILLER_0_8_139
*1391 FILLER_0_8_141
*1392 FILLER_0_8_15
*1393 FILLER_0_8_153
*1394 FILLER_0_8_165
*1395 FILLER_0_8_177
*1396 FILLER_0_8_189
*1397 FILLER_0_8_195
*1398 FILLER_0_8_197
*1399 FILLER_0_8_209
*1400 FILLER_0_8_221
*1401 FILLER_0_8_233
*1402 FILLER_0_8_245
*1403 FILLER_0_8_251
*1404 FILLER_0_8_253
*1405 FILLER_0_8_265
*1406 FILLER_0_8_27
*1407 FILLER_0_8_277
*1408 FILLER_0_8_289
*1409 FILLER_0_8_29
*1410 FILLER_0_8_3
*1411 FILLER_0_8_301
*1412 FILLER_0_8_307
*1413 FILLER_0_8_309
*1414 FILLER_0_8_321
*1415 FILLER_0_8_333
*1416 FILLER_0_8_41
*1417 FILLER_0_8_53
*1418 FILLER_0_8_65
*1419 FILLER_0_8_77
*1420 FILLER_0_8_83
*1421 FILLER_0_8_85
*1422 FILLER_0_8_97
*1423 FILLER_0_9_105
*1424 FILLER_0_9_111
*1425 FILLER_0_9_113
*1426 FILLER_0_9_125
*1427 FILLER_0_9_137
*1428 FILLER_0_9_149
*1429 FILLER_0_9_15
*1430 FILLER_0_9_161
*1431 FILLER_0_9_167
*1432 FILLER_0_9_169
*1433 FILLER_0_9_181
*1434 FILLER_0_9_193
*1435 FILLER_0_9_205
*1436 FILLER_0_9_217
*1437 FILLER_0_9_223
*1438 FILLER_0_9_225
*1439 FILLER_0_9_237
*1440 FILLER_0_9_249
*1441 FILLER_0_9_261
*1442 FILLER_0_9_27
*1443 FILLER_0_9_273
*1444 FILLER_0_9_279
*1445 FILLER_0_9_281
*1446 FILLER_0_9_293
*1447 FILLER_0_9_3
*1448 FILLER_0_9_305
*1449 FILLER_0_9_317
*1450 FILLER_0_9_329
*1451 FILLER_0_9_39
*1452 FILLER_0_9_51
*1453 FILLER_0_9_55
*1454 FILLER_0_9_57
*1455 FILLER_0_9_69
*1456 FILLER_0_9_81
*1457 FILLER_0_9_93
*1458 PHY_EDGE_ROW_0_Left_39
*1459 PHY_EDGE_ROW_0_Right_0