*SPEF "ieee 1481-1999"
*DESIGN "tt_um_wokwi_395055455727667201"
*DATE "03:34:25 Friday April 19, 2024"
*VENDOR "The OpenROAD Project"
*PROGRAM "OpenROAD"
*VERSION "0889970d1790a2617e69f253221b8bd7626e51dc"
*DESIGN_FLOW "NAME_SCOPE LOCAL" "PIN_CAP NONE"
*DIVIDER /
*DELIMITER :
*BUS_DELIMITER []
*T_UNIT 1 NS
*C_UNIT 1 PF
*R_UNIT 1 OHM
*L_UNIT 1 HENRY

*NAME_MAP
*3 clk
*4 ena
*5 rst_n
*6 ui_in[0]
*7 ui_in[1]
*8 ui_in[2]
*9 ui_in[3]
*10 ui_in[4]
*11 ui_in[5]
*12 ui_in[6]
*13 ui_in[7]
*14 uio_in[0]
*15 uio_in[1]
*16 uio_in[2]
*17 uio_in[3]
*18 uio_in[4]
*19 uio_in[5]
*20 uio_in[6]
*21 uio_in[7]
*22 net14
*23 net15
*24 net16
*25 net17
*26 net32
*27 net18
*28 net19
*29 net33
*30 net20
*31 net21
*32 net22
*33 net23
*34 uio_out[4]
*35 net24
*36 net25
*37 uio_out[7]
*38 uo_out[0]
*39 uo_out[1]
*40 net26
*41 net27
*42 net28
*43 net29
*44 net30
*45 net31
*46 _000_
*47 _001_
*48 _002_
*49 _003_
*50 _004_
*51 _005_
*52 _006_
*53 _007_
*54 _008_
*55 _009_
*56 _010_
*57 _011_
*58 _012_
*59 _013_
*60 _014_
*61 _015_
*62 _016_
*63 _017_
*64 _018_
*65 _019_
*66 _020_
*67 _021_
*68 _022_
*69 _023_
*70 _024_
*71 _025_
*72 _026_
*73 _027_
*74 _028_
*75 _029_
*76 _030_
*77 _031_
*78 _032_
*79 _033_
*80 clknet_0_clk
*81 clknet_1_0__leaf_clk
*82 clknet_1_1__leaf_clk
*83 flop1\.d
*84 flop1\.q
*85 flop10\.d
*86 flop10\.q
*87 flop11\.d
*88 flop11\.q
*89 flop12\.d
*90 flop12\.q
*91 flop13\.d
*92 flop13\.q
*93 flop14\.d
*94 flop14\.q
*95 flop15\.d
*96 flop15\.q
*97 flop16\.d
*98 flop16\.q
*99 flop17\.d
*100 flop17\.q
*101 flop18\.d
*102 flop18\.q
*103 flop19\.d
*104 flop19\.q
*105 flop2\.d
*106 flop2\.q
*107 flop20\.d
*108 flop20\.q
*109 flop3\.d
*110 flop3\.q
*111 flop4\.d
*112 flop4\.q
*113 flop5\.d
*114 flop5\.q
*115 flop6\.d
*116 flop6\.q
*117 flop7\.d
*118 flop7\.q
*119 flop8\.d
*120 flop8\.q
*121 flop9\.d
*122 flop9\.q
*123 mux1\.a
*124 mux2\.a
*125 net1
*126 net10
*127 net11
*128 net12
*129 net13
*130 net2
*131 net3
*132 net34
*133 net35
*134 net36
*135 net37
*136 net38
*137 net39
*138 net4
*139 net40
*140 net41
*141 net42
*142 net43
*143 net44
*144 net45
*145 net46
*146 net47
*147 net48
*148 net49
*149 net5
*150 net50
*151 net6
*152 net7
*153 net8
*154 net9
*155 not1\.out
*156 FILLER_0_0_109
*157 FILLER_0_0_113
*158 FILLER_0_0_125
*159 FILLER_0_0_137
*160 FILLER_0_0_141
*161 FILLER_0_0_15
*162 FILLER_0_0_153
*163 FILLER_0_0_165
*164 FILLER_0_0_169
*165 FILLER_0_0_181
*166 FILLER_0_0_193
*167 FILLER_0_0_197
*168 FILLER_0_0_209
*169 FILLER_0_0_221
*170 FILLER_0_0_225
*171 FILLER_0_0_237
*172 FILLER_0_0_249
*173 FILLER_0_0_253
*174 FILLER_0_0_265
*175 FILLER_0_0_27
*176 FILLER_0_0_277
*177 FILLER_0_0_281
*178 FILLER_0_0_29
*179 FILLER_0_0_293
*180 FILLER_0_0_3
*181 FILLER_0_0_305
*182 FILLER_0_0_309
*183 FILLER_0_0_321
*184 FILLER_0_0_333
*185 FILLER_0_0_41
*186 FILLER_0_0_53
*187 FILLER_0_0_57
*188 FILLER_0_0_69
*189 FILLER_0_0_81
*190 FILLER_0_0_85
*191 FILLER_0_0_97
*192 FILLER_0_10_109
*193 FILLER_0_10_121
*194 FILLER_0_10_133
*195 FILLER_0_10_139
*196 FILLER_0_10_141
*197 FILLER_0_10_15
*198 FILLER_0_10_153
*199 FILLER_0_10_165
*200 FILLER_0_10_177
*201 FILLER_0_10_189
*202 FILLER_0_10_195
*203 FILLER_0_10_197
*204 FILLER_0_10_209
*205 FILLER_0_10_221
*206 FILLER_0_10_233
*207 FILLER_0_10_245
*208 FILLER_0_10_251
*209 FILLER_0_10_253
*210 FILLER_0_10_265
*211 FILLER_0_10_27
*212 FILLER_0_10_277
*213 FILLER_0_10_289
*214 FILLER_0_10_29
*215 FILLER_0_10_3
*216 FILLER_0_10_301
*217 FILLER_0_10_307
*218 FILLER_0_10_309
*219 FILLER_0_10_321
*220 FILLER_0_10_333
*221 FILLER_0_10_41
*222 FILLER_0_10_53
*223 FILLER_0_10_65
*224 FILLER_0_10_77
*225 FILLER_0_10_83
*226 FILLER_0_10_85
*227 FILLER_0_10_97
*228 FILLER_0_11_105
*229 FILLER_0_11_111
*230 FILLER_0_11_113
*231 FILLER_0_11_125
*232 FILLER_0_11_137
*233 FILLER_0_11_149
*234 FILLER_0_11_15
*235 FILLER_0_11_161
*236 FILLER_0_11_167
*237 FILLER_0_11_169
*238 FILLER_0_11_181
*239 FILLER_0_11_193
*240 FILLER_0_11_205
*241 FILLER_0_11_217
*242 FILLER_0_11_223
*243 FILLER_0_11_225
*244 FILLER_0_11_237
*245 FILLER_0_11_249
*246 FILLER_0_11_261
*247 FILLER_0_11_27
*248 FILLER_0_11_273
*249 FILLER_0_11_279
*250 FILLER_0_11_281
*251 FILLER_0_11_293
*252 FILLER_0_11_3
*253 FILLER_0_11_305
*254 FILLER_0_11_317
*255 FILLER_0_11_329
*256 FILLER_0_11_39
*257 FILLER_0_11_51
*258 FILLER_0_11_55
*259 FILLER_0_11_57
*260 FILLER_0_11_69
*261 FILLER_0_11_81
*262 FILLER_0_11_93
*263 FILLER_0_12_109
*264 FILLER_0_12_121
*265 FILLER_0_12_133
*266 FILLER_0_12_139
*267 FILLER_0_12_141
*268 FILLER_0_12_15
*269 FILLER_0_12_153
*270 FILLER_0_12_165
*271 FILLER_0_12_177
*272 FILLER_0_12_189
*273 FILLER_0_12_195
*274 FILLER_0_12_197
*275 FILLER_0_12_209
*276 FILLER_0_12_221
*277 FILLER_0_12_233
*278 FILLER_0_12_245
*279 FILLER_0_12_251
*280 FILLER_0_12_253
*281 FILLER_0_12_265
*282 FILLER_0_12_27
*283 FILLER_0_12_277
*284 FILLER_0_12_289
*285 FILLER_0_12_29
*286 FILLER_0_12_3
*287 FILLER_0_12_301
*288 FILLER_0_12_307
*289 FILLER_0_12_309
*290 FILLER_0_12_321
*291 FILLER_0_12_333
*292 FILLER_0_12_41
*293 FILLER_0_12_53
*294 FILLER_0_12_65
*295 FILLER_0_12_77
*296 FILLER_0_12_83
*297 FILLER_0_12_85
*298 FILLER_0_12_97
*299 FILLER_0_13_105
*300 FILLER_0_13_111
*301 FILLER_0_13_113
*302 FILLER_0_13_125
*303 FILLER_0_13_137
*304 FILLER_0_13_149
*305 FILLER_0_13_15
*306 FILLER_0_13_161
*307 FILLER_0_13_167
*308 FILLER_0_13_169
*309 FILLER_0_13_181
*310 FILLER_0_13_193
*311 FILLER_0_13_205
*312 FILLER_0_13_217
*313 FILLER_0_13_223
*314 FILLER_0_13_225
*315 FILLER_0_13_237
*316 FILLER_0_13_249
*317 FILLER_0_13_261
*318 FILLER_0_13_27
*319 FILLER_0_13_273
*320 FILLER_0_13_279
*321 FILLER_0_13_281
*322 FILLER_0_13_293
*323 FILLER_0_13_3
*324 FILLER_0_13_305
*325 FILLER_0_13_317
*326 FILLER_0_13_329
*327 FILLER_0_13_39
*328 FILLER_0_13_51
*329 FILLER_0_13_55
*330 FILLER_0_13_57
*331 FILLER_0_13_69
*332 FILLER_0_13_81
*333 FILLER_0_13_93
*334 FILLER_0_14_109
*335 FILLER_0_14_121
*336 FILLER_0_14_133
*337 FILLER_0_14_139
*338 FILLER_0_14_141
*339 FILLER_0_14_15
*340 FILLER_0_14_153
*341 FILLER_0_14_165
*342 FILLER_0_14_177
*343 FILLER_0_14_189
*344 FILLER_0_14_195
*345 FILLER_0_14_197
*346 FILLER_0_14_209
*347 FILLER_0_14_221
*348 FILLER_0_14_233
*349 FILLER_0_14_245
*350 FILLER_0_14_251
*351 FILLER_0_14_253
*352 FILLER_0_14_265
*353 FILLER_0_14_27
*354 FILLER_0_14_277
*355 FILLER_0_14_289
*356 FILLER_0_14_29
*357 FILLER_0_14_3
*358 FILLER_0_14_301
*359 FILLER_0_14_307
*360 FILLER_0_14_309
*361 FILLER_0_14_321
*362 FILLER_0_14_333
*363 FILLER_0_14_41
*364 FILLER_0_14_53
*365 FILLER_0_14_65
*366 FILLER_0_14_77
*367 FILLER_0_14_83
*368 FILLER_0_14_85
*369 FILLER_0_14_97
*370 FILLER_0_15_105
*371 FILLER_0_15_111
*372 FILLER_0_15_113
*373 FILLER_0_15_125
*374 FILLER_0_15_137
*375 FILLER_0_15_149
*376 FILLER_0_15_15
*377 FILLER_0_15_161
*378 FILLER_0_15_167
*379 FILLER_0_15_169
*380 FILLER_0_15_181
*381 FILLER_0_15_193
*382 FILLER_0_15_205
*383 FILLER_0_15_217
*384 FILLER_0_15_223
*385 FILLER_0_15_225
*386 FILLER_0_15_237
*387 FILLER_0_15_249
*388 FILLER_0_15_261
*389 FILLER_0_15_27
*390 FILLER_0_15_273
*391 FILLER_0_15_279
*392 FILLER_0_15_281
*393 FILLER_0_15_293
*394 FILLER_0_15_3
*395 FILLER_0_15_305
*396 FILLER_0_15_317
*397 FILLER_0_15_329
*398 FILLER_0_15_39
*399 FILLER_0_15_51
*400 FILLER_0_15_55
*401 FILLER_0_15_57
*402 FILLER_0_15_69
*403 FILLER_0_15_81
*404 FILLER_0_15_93
*405 FILLER_0_16_109
*406 FILLER_0_16_121
*407 FILLER_0_16_133
*408 FILLER_0_16_139
*409 FILLER_0_16_141
*410 FILLER_0_16_15
*411 FILLER_0_16_153
*412 FILLER_0_16_165
*413 FILLER_0_16_177
*414 FILLER_0_16_189
*415 FILLER_0_16_195
*416 FILLER_0_16_197
*417 FILLER_0_16_209
*418 FILLER_0_16_221
*419 FILLER_0_16_233
*420 FILLER_0_16_245
*421 FILLER_0_16_251
*422 FILLER_0_16_253
*423 FILLER_0_16_265
*424 FILLER_0_16_27
*425 FILLER_0_16_277
*426 FILLER_0_16_289
*427 FILLER_0_16_29
*428 FILLER_0_16_3
*429 FILLER_0_16_301
*430 FILLER_0_16_307
*431 FILLER_0_16_309
*432 FILLER_0_16_321
*433 FILLER_0_16_333
*434 FILLER_0_16_41
*435 FILLER_0_16_53
*436 FILLER_0_16_65
*437 FILLER_0_16_77
*438 FILLER_0_16_83
*439 FILLER_0_16_85
*440 FILLER_0_16_97
*441 FILLER_0_17_105
*442 FILLER_0_17_111
*443 FILLER_0_17_113
*444 FILLER_0_17_125
*445 FILLER_0_17_137
*446 FILLER_0_17_149
*447 FILLER_0_17_15
*448 FILLER_0_17_161
*449 FILLER_0_17_167
*450 FILLER_0_17_169
*451 FILLER_0_17_181
*452 FILLER_0_17_193
*453 FILLER_0_17_205
*454 FILLER_0_17_217
*455 FILLER_0_17_223
*456 FILLER_0_17_225
*457 FILLER_0_17_237
*458 FILLER_0_17_249
*459 FILLER_0_17_261
*460 FILLER_0_17_27
*461 FILLER_0_17_273
*462 FILLER_0_17_279
*463 FILLER_0_17_281
*464 FILLER_0_17_293
*465 FILLER_0_17_3
*466 FILLER_0_17_305
*467 FILLER_0_17_317
*468 FILLER_0_17_329
*469 FILLER_0_17_39
*470 FILLER_0_17_51
*471 FILLER_0_17_55
*472 FILLER_0_17_57
*473 FILLER_0_17_69
*474 FILLER_0_17_81
*475 FILLER_0_17_93
*476 FILLER_0_18_109
*477 FILLER_0_18_121
*478 FILLER_0_18_133
*479 FILLER_0_18_139
*480 FILLER_0_18_141
*481 FILLER_0_18_15
*482 FILLER_0_18_153
*483 FILLER_0_18_165
*484 FILLER_0_18_177
*485 FILLER_0_18_189
*486 FILLER_0_18_195
*487 FILLER_0_18_197
*488 FILLER_0_18_209
*489 FILLER_0_18_221
*490 FILLER_0_18_233
*491 FILLER_0_18_245
*492 FILLER_0_18_251
*493 FILLER_0_18_253
*494 FILLER_0_18_265
*495 FILLER_0_18_27
*496 FILLER_0_18_277
*497 FILLER_0_18_289
*498 FILLER_0_18_29
*499 FILLER_0_18_3
*500 FILLER_0_18_301
*501 FILLER_0_18_307
*502 FILLER_0_18_309
*503 FILLER_0_18_321
*504 FILLER_0_18_333
*505 FILLER_0_18_41
*506 FILLER_0_18_53
*507 FILLER_0_18_65
*508 FILLER_0_18_77
*509 FILLER_0_18_83
*510 FILLER_0_18_85
*511 FILLER_0_18_97
*512 FILLER_0_19_105
*513 FILLER_0_19_111
*514 FILLER_0_19_113
*515 FILLER_0_19_125
*516 FILLER_0_19_137
*517 FILLER_0_19_149
*518 FILLER_0_19_15
*519 FILLER_0_19_161
*520 FILLER_0_19_167
*521 FILLER_0_19_169
*522 FILLER_0_19_181
*523 FILLER_0_19_193
*524 FILLER_0_19_205
*525 FILLER_0_19_217
*526 FILLER_0_19_223
*527 FILLER_0_19_225
*528 FILLER_0_19_237
*529 FILLER_0_19_249
*530 FILLER_0_19_261
*531 FILLER_0_19_27
*532 FILLER_0_19_273
*533 FILLER_0_19_279
*534 FILLER_0_19_281
*535 FILLER_0_19_293
*536 FILLER_0_19_3
*537 FILLER_0_19_305
*538 FILLER_0_19_317
*539 FILLER_0_19_329
*540 FILLER_0_19_39
*541 FILLER_0_19_51
*542 FILLER_0_19_55
*543 FILLER_0_19_57
*544 FILLER_0_19_69
*545 FILLER_0_19_81
*546 FILLER_0_19_93
*547 FILLER_0_1_105
*548 FILLER_0_1_111
*549 FILLER_0_1_113
*550 FILLER_0_1_125
*551 FILLER_0_1_137
*552 FILLER_0_1_149
*553 FILLER_0_1_15
*554 FILLER_0_1_161
*555 FILLER_0_1_167
*556 FILLER_0_1_169
*557 FILLER_0_1_181
*558 FILLER_0_1_193
*559 FILLER_0_1_205
*560 FILLER_0_1_217
*561 FILLER_0_1_223
*562 FILLER_0_1_225
*563 FILLER_0_1_237
*564 FILLER_0_1_249
*565 FILLER_0_1_261
*566 FILLER_0_1_27
*567 FILLER_0_1_273
*568 FILLER_0_1_279
*569 FILLER_0_1_281
*570 FILLER_0_1_293
*571 FILLER_0_1_3
*572 FILLER_0_1_305
*573 FILLER_0_1_317
*574 FILLER_0_1_329
*575 FILLER_0_1_39
*576 FILLER_0_1_51
*577 FILLER_0_1_55
*578 FILLER_0_1_57
*579 FILLER_0_1_69
*580 FILLER_0_1_81
*581 FILLER_0_1_93
*582 FILLER_0_20_109
*583 FILLER_0_20_121
*584 FILLER_0_20_133
*585 FILLER_0_20_139
*586 FILLER_0_20_141
*587 FILLER_0_20_15
*588 FILLER_0_20_153
*589 FILLER_0_20_165
*590 FILLER_0_20_177
*591 FILLER_0_20_189
*592 FILLER_0_20_195
*593 FILLER_0_20_197
*594 FILLER_0_20_209
*595 FILLER_0_20_221
*596 FILLER_0_20_233
*597 FILLER_0_20_245
*598 FILLER_0_20_251
*599 FILLER_0_20_253
*600 FILLER_0_20_265
*601 FILLER_0_20_27
*602 FILLER_0_20_277
*603 FILLER_0_20_289
*604 FILLER_0_20_29
*605 FILLER_0_20_3
*606 FILLER_0_20_301
*607 FILLER_0_20_307
*608 FILLER_0_20_309
*609 FILLER_0_20_321
*610 FILLER_0_20_333
*611 FILLER_0_20_41
*612 FILLER_0_20_53
*613 FILLER_0_20_65
*614 FILLER_0_20_77
*615 FILLER_0_20_83
*616 FILLER_0_20_85
*617 FILLER_0_20_97
*618 FILLER_0_21_105
*619 FILLER_0_21_111
*620 FILLER_0_21_113
*621 FILLER_0_21_125
*622 FILLER_0_21_137
*623 FILLER_0_21_149
*624 FILLER_0_21_15
*625 FILLER_0_21_161
*626 FILLER_0_21_167
*627 FILLER_0_21_169
*628 FILLER_0_21_181
*629 FILLER_0_21_193
*630 FILLER_0_21_205
*631 FILLER_0_21_217
*632 FILLER_0_21_223
*633 FILLER_0_21_225
*634 FILLER_0_21_237
*635 FILLER_0_21_249
*636 FILLER_0_21_261
*637 FILLER_0_21_27
*638 FILLER_0_21_273
*639 FILLER_0_21_279
*640 FILLER_0_21_281
*641 FILLER_0_21_293
*642 FILLER_0_21_3
*643 FILLER_0_21_305
*644 FILLER_0_21_317
*645 FILLER_0_21_329
*646 FILLER_0_21_39
*647 FILLER_0_21_51
*648 FILLER_0_21_55
*649 FILLER_0_21_57
*650 FILLER_0_21_69
*651 FILLER_0_21_81
*652 FILLER_0_21_93
*653 FILLER_0_22_109
*654 FILLER_0_22_121
*655 FILLER_0_22_133
*656 FILLER_0_22_139
*657 FILLER_0_22_141
*658 FILLER_0_22_15
*659 FILLER_0_22_153
*660 FILLER_0_22_165
*661 FILLER_0_22_177
*662 FILLER_0_22_189
*663 FILLER_0_22_195
*664 FILLER_0_22_197
*665 FILLER_0_22_209
*666 FILLER_0_22_221
*667 FILLER_0_22_233
*668 FILLER_0_22_245
*669 FILLER_0_22_251
*670 FILLER_0_22_253
*671 FILLER_0_22_265
*672 FILLER_0_22_27
*673 FILLER_0_22_277
*674 FILLER_0_22_289
*675 FILLER_0_22_29
*676 FILLER_0_22_3
*677 FILLER_0_22_301
*678 FILLER_0_22_307
*679 FILLER_0_22_309
*680 FILLER_0_22_321
*681 FILLER_0_22_333
*682 FILLER_0_22_41
*683 FILLER_0_22_53
*684 FILLER_0_22_65
*685 FILLER_0_22_77
*686 FILLER_0_22_83
*687 FILLER_0_22_85
*688 FILLER_0_22_97
*689 FILLER_0_23_105
*690 FILLER_0_23_111
*691 FILLER_0_23_113
*692 FILLER_0_23_125
*693 FILLER_0_23_137
*694 FILLER_0_23_149
*695 FILLER_0_23_15
*696 FILLER_0_23_161
*697 FILLER_0_23_167
*698 FILLER_0_23_169
*699 FILLER_0_23_181
*700 FILLER_0_23_193
*701 FILLER_0_23_205
*702 FILLER_0_23_217
*703 FILLER_0_23_223
*704 FILLER_0_23_225
*705 FILLER_0_23_237
*706 FILLER_0_23_249
*707 FILLER_0_23_261
*708 FILLER_0_23_27
*709 FILLER_0_23_273
*710 FILLER_0_23_279
*711 FILLER_0_23_281
*712 FILLER_0_23_293
*713 FILLER_0_23_3
*714 FILLER_0_23_305
*715 FILLER_0_23_317
*716 FILLER_0_23_329
*717 FILLER_0_23_39
*718 FILLER_0_23_51
*719 FILLER_0_23_55
*720 FILLER_0_23_57
*721 FILLER_0_23_69
*722 FILLER_0_23_81
*723 FILLER_0_23_93
*724 FILLER_0_24_109
*725 FILLER_0_24_121
*726 FILLER_0_24_133
*727 FILLER_0_24_139
*728 FILLER_0_24_141
*729 FILLER_0_24_15
*730 FILLER_0_24_153
*731 FILLER_0_24_165
*732 FILLER_0_24_177
*733 FILLER_0_24_189
*734 FILLER_0_24_195
*735 FILLER_0_24_197
*736 FILLER_0_24_209
*737 FILLER_0_24_221
*738 FILLER_0_24_233
*739 FILLER_0_24_245
*740 FILLER_0_24_251
*741 FILLER_0_24_253
*742 FILLER_0_24_265
*743 FILLER_0_24_27
*744 FILLER_0_24_277
*745 FILLER_0_24_289
*746 FILLER_0_24_29
*747 FILLER_0_24_3
*748 FILLER_0_24_301
*749 FILLER_0_24_307
*750 FILLER_0_24_309
*751 FILLER_0_24_321
*752 FILLER_0_24_333
*753 FILLER_0_24_41
*754 FILLER_0_24_53
*755 FILLER_0_24_65
*756 FILLER_0_24_77
*757 FILLER_0_24_83
*758 FILLER_0_24_85
*759 FILLER_0_24_97
*760 FILLER_0_25_105
*761 FILLER_0_25_111
*762 FILLER_0_25_113
*763 FILLER_0_25_125
*764 FILLER_0_25_137
*765 FILLER_0_25_149
*766 FILLER_0_25_15
*767 FILLER_0_25_161
*768 FILLER_0_25_167
*769 FILLER_0_25_169
*770 FILLER_0_25_181
*771 FILLER_0_25_193
*772 FILLER_0_25_205
*773 FILLER_0_25_217
*774 FILLER_0_25_223
*775 FILLER_0_25_225
*776 FILLER_0_25_237
*777 FILLER_0_25_249
*778 FILLER_0_25_261
*779 FILLER_0_25_27
*780 FILLER_0_25_273
*781 FILLER_0_25_279
*782 FILLER_0_25_281
*783 FILLER_0_25_293
*784 FILLER_0_25_3
*785 FILLER_0_25_305
*786 FILLER_0_25_317
*787 FILLER_0_25_329
*788 FILLER_0_25_39
*789 FILLER_0_25_51
*790 FILLER_0_25_55
*791 FILLER_0_25_57
*792 FILLER_0_25_69
*793 FILLER_0_25_81
*794 FILLER_0_25_93
*795 FILLER_0_26_109
*796 FILLER_0_26_121
*797 FILLER_0_26_133
*798 FILLER_0_26_139
*799 FILLER_0_26_141
*800 FILLER_0_26_15
*801 FILLER_0_26_153
*802 FILLER_0_26_165
*803 FILLER_0_26_177
*804 FILLER_0_26_189
*805 FILLER_0_26_195
*806 FILLER_0_26_197
*807 FILLER_0_26_209
*808 FILLER_0_26_221
*809 FILLER_0_26_233
*810 FILLER_0_26_245
*811 FILLER_0_26_251
*812 FILLER_0_26_253
*813 FILLER_0_26_265
*814 FILLER_0_26_27
*815 FILLER_0_26_277
*816 FILLER_0_26_289
*817 FILLER_0_26_29
*818 FILLER_0_26_3
*819 FILLER_0_26_301
*820 FILLER_0_26_307
*821 FILLER_0_26_309
*822 FILLER_0_26_321
*823 FILLER_0_26_333
*824 FILLER_0_26_41
*825 FILLER_0_26_53
*826 FILLER_0_26_65
*827 FILLER_0_26_77
*828 FILLER_0_26_83
*829 FILLER_0_26_85
*830 FILLER_0_26_97
*831 FILLER_0_27_105
*832 FILLER_0_27_111
*833 FILLER_0_27_113
*834 FILLER_0_27_125
*835 FILLER_0_27_137
*836 FILLER_0_27_149
*837 FILLER_0_27_15
*838 FILLER_0_27_161
*839 FILLER_0_27_167
*840 FILLER_0_27_169
*841 FILLER_0_27_181
*842 FILLER_0_27_193
*843 FILLER_0_27_205
*844 FILLER_0_27_217
*845 FILLER_0_27_223
*846 FILLER_0_27_225
*847 FILLER_0_27_237
*848 FILLER_0_27_249
*849 FILLER_0_27_261
*850 FILLER_0_27_27
*851 FILLER_0_27_273
*852 FILLER_0_27_279
*853 FILLER_0_27_281
*854 FILLER_0_27_293
*855 FILLER_0_27_3
*856 FILLER_0_27_305
*857 FILLER_0_27_317
*858 FILLER_0_27_329
*859 FILLER_0_27_39
*860 FILLER_0_27_51
*861 FILLER_0_27_55
*862 FILLER_0_27_57
*863 FILLER_0_27_69
*864 FILLER_0_27_81
*865 FILLER_0_27_93
*866 FILLER_0_28_109
*867 FILLER_0_28_121
*868 FILLER_0_28_133
*869 FILLER_0_28_139
*870 FILLER_0_28_141
*871 FILLER_0_28_15
*872 FILLER_0_28_153
*873 FILLER_0_28_165
*874 FILLER_0_28_177
*875 FILLER_0_28_189
*876 FILLER_0_28_195
*877 FILLER_0_28_197
*878 FILLER_0_28_209
*879 FILLER_0_28_221
*880 FILLER_0_28_233
*881 FILLER_0_28_245
*882 FILLER_0_28_251
*883 FILLER_0_28_253
*884 FILLER_0_28_265
*885 FILLER_0_28_27
*886 FILLER_0_28_277
*887 FILLER_0_28_289
*888 FILLER_0_28_29
*889 FILLER_0_28_3
*890 FILLER_0_28_301
*891 FILLER_0_28_307
*892 FILLER_0_28_309
*893 FILLER_0_28_321
*894 FILLER_0_28_333
*895 FILLER_0_28_41
*896 FILLER_0_28_53
*897 FILLER_0_28_65
*898 FILLER_0_28_77
*899 FILLER_0_28_83
*900 FILLER_0_28_85
*901 FILLER_0_28_97
*902 FILLER_0_29_105
*903 FILLER_0_29_111
*904 FILLER_0_29_113
*905 FILLER_0_29_125
*906 FILLER_0_29_137
*907 FILLER_0_29_149
*908 FILLER_0_29_15
*909 FILLER_0_29_161
*910 FILLER_0_29_167
*911 FILLER_0_29_169
*912 FILLER_0_29_181
*913 FILLER_0_29_193
*914 FILLER_0_29_205
*915 FILLER_0_29_217
*916 FILLER_0_29_223
*917 FILLER_0_29_225
*918 FILLER_0_29_237
*919 FILLER_0_29_249
*920 FILLER_0_29_261
*921 FILLER_0_29_27
*922 FILLER_0_29_273
*923 FILLER_0_29_279
*924 FILLER_0_29_281
*925 FILLER_0_29_293
*926 FILLER_0_29_3
*927 FILLER_0_29_305
*928 FILLER_0_29_317
*929 FILLER_0_29_329
*930 FILLER_0_29_39
*931 FILLER_0_29_51
*932 FILLER_0_29_55
*933 FILLER_0_29_57
*934 FILLER_0_29_69
*935 FILLER_0_29_81
*936 FILLER_0_29_93
*937 FILLER_0_2_109
*938 FILLER_0_2_121
*939 FILLER_0_2_133
*940 FILLER_0_2_139
*941 FILLER_0_2_141
*942 FILLER_0_2_15
*943 FILLER_0_2_153
*944 FILLER_0_2_165
*945 FILLER_0_2_177
*946 FILLER_0_2_189
*947 FILLER_0_2_195
*948 FILLER_0_2_197
*949 FILLER_0_2_209
*950 FILLER_0_2_221
*951 FILLER_0_2_233
*952 FILLER_0_2_245
*953 FILLER_0_2_251
*954 FILLER_0_2_253
*955 FILLER_0_2_265
*956 FILLER_0_2_27
*957 FILLER_0_2_277
*958 FILLER_0_2_289
*959 FILLER_0_2_29
*960 FILLER_0_2_3
*961 FILLER_0_2_301
*962 FILLER_0_2_307
*963 FILLER_0_2_309
*964 FILLER_0_2_321
*965 FILLER_0_2_333
*966 FILLER_0_2_41
*967 FILLER_0_2_53
*968 FILLER_0_2_65
*969 FILLER_0_2_77
*970 FILLER_0_2_83
*971 FILLER_0_2_85
*972 FILLER_0_2_97
*973 FILLER_0_30_109
*974 FILLER_0_30_121
*975 FILLER_0_30_133
*976 FILLER_0_30_139
*977 FILLER_0_30_141
*978 FILLER_0_30_15
*979 FILLER_0_30_153
*980 FILLER_0_30_165
*981 FILLER_0_30_177
*982 FILLER_0_30_189
*983 FILLER_0_30_195
*984 FILLER_0_30_197
*985 FILLER_0_30_209
*986 FILLER_0_30_221
*987 FILLER_0_30_233
*988 FILLER_0_30_245
*989 FILLER_0_30_251
*990 FILLER_0_30_253
*991 FILLER_0_30_265
*992 FILLER_0_30_27
*993 FILLER_0_30_277
*994 FILLER_0_30_289
*995 FILLER_0_30_29
*996 FILLER_0_30_3
*997 FILLER_0_30_301
*998 FILLER_0_30_307
*999 FILLER_0_30_309
*1000 FILLER_0_30_321
*1001 FILLER_0_30_333
*1002 FILLER_0_30_41
*1003 FILLER_0_30_53
*1004 FILLER_0_30_65
*1005 FILLER_0_30_77
*1006 FILLER_0_30_83
*1007 FILLER_0_30_85
*1008 FILLER_0_30_97
*1009 FILLER_0_31_105
*1010 FILLER_0_31_111
*1011 FILLER_0_31_113
*1012 FILLER_0_31_125
*1013 FILLER_0_31_137
*1014 FILLER_0_31_149
*1015 FILLER_0_31_15
*1016 FILLER_0_31_161
*1017 FILLER_0_31_167
*1018 FILLER_0_31_169
*1019 FILLER_0_31_181
*1020 FILLER_0_31_203
*1021 FILLER_0_31_215
*1022 FILLER_0_31_223
*1023 FILLER_0_31_225
*1024 FILLER_0_31_233
*1025 FILLER_0_31_237
*1026 FILLER_0_31_257
*1027 FILLER_0_31_27
*1028 FILLER_0_31_272
*1029 FILLER_0_31_281
*1030 FILLER_0_31_3
*1031 FILLER_0_31_314
*1032 FILLER_0_31_326
*1033 FILLER_0_31_334
*1034 FILLER_0_31_39
*1035 FILLER_0_31_51
*1036 FILLER_0_31_55
*1037 FILLER_0_31_57
*1038 FILLER_0_31_69
*1039 FILLER_0_31_81
*1040 FILLER_0_31_93
*1041 FILLER_0_32_109
*1042 FILLER_0_32_121
*1043 FILLER_0_32_133
*1044 FILLER_0_32_139
*1045 FILLER_0_32_141
*1046 FILLER_0_32_15
*1047 FILLER_0_32_153
*1048 FILLER_0_32_165
*1049 FILLER_0_32_177
*1050 FILLER_0_32_189
*1051 FILLER_0_32_195
*1052 FILLER_0_32_219
*1053 FILLER_0_32_227
*1054 FILLER_0_32_27
*1055 FILLER_0_32_29
*1056 FILLER_0_32_3
*1057 FILLER_0_32_307
*1058 FILLER_0_32_317
*1059 FILLER_0_32_329
*1060 FILLER_0_32_41
*1061 FILLER_0_32_53
*1062 FILLER_0_32_65
*1063 FILLER_0_32_77
*1064 FILLER_0_32_83
*1065 FILLER_0_32_85
*1066 FILLER_0_32_97
*1067 FILLER_0_33_105
*1068 FILLER_0_33_111
*1069 FILLER_0_33_113
*1070 FILLER_0_33_125
*1071 FILLER_0_33_137
*1072 FILLER_0_33_149
*1073 FILLER_0_33_15
*1074 FILLER_0_33_161
*1075 FILLER_0_33_167
*1076 FILLER_0_33_169
*1077 FILLER_0_33_181
*1078 FILLER_0_33_208
*1079 FILLER_0_33_216
*1080 FILLER_0_33_225
*1081 FILLER_0_33_252
*1082 FILLER_0_33_27
*1083 FILLER_0_33_270
*1084 FILLER_0_33_3
*1085 FILLER_0_33_309
*1086 FILLER_0_33_326
*1087 FILLER_0_33_334
*1088 FILLER_0_33_39
*1089 FILLER_0_33_51
*1090 FILLER_0_33_55
*1091 FILLER_0_33_57
*1092 FILLER_0_33_69
*1093 FILLER_0_33_81
*1094 FILLER_0_33_93
*1095 FILLER_0_34_109
*1096 FILLER_0_34_121
*1097 FILLER_0_34_133
*1098 FILLER_0_34_139
*1099 FILLER_0_34_141
*1100 FILLER_0_34_15
*1101 FILLER_0_34_153
*1102 FILLER_0_34_165
*1103 FILLER_0_34_177
*1104 FILLER_0_34_189
*1105 FILLER_0_34_200
*1106 FILLER_0_34_210
*1107 FILLER_0_34_27
*1108 FILLER_0_34_277
*1109 FILLER_0_34_29
*1110 FILLER_0_34_3
*1111 FILLER_0_34_306
*1112 FILLER_0_34_333
*1113 FILLER_0_34_41
*1114 FILLER_0_34_53
*1115 FILLER_0_34_65
*1116 FILLER_0_34_77
*1117 FILLER_0_34_83
*1118 FILLER_0_34_85
*1119 FILLER_0_34_97
*1120 FILLER_0_35_105
*1121 FILLER_0_35_111
*1122 FILLER_0_35_113
*1123 FILLER_0_35_125
*1124 FILLER_0_35_137
*1125 FILLER_0_35_149
*1126 FILLER_0_35_15
*1127 FILLER_0_35_161
*1128 FILLER_0_35_167
*1129 FILLER_0_35_169
*1130 FILLER_0_35_181
*1131 FILLER_0_35_207
*1132 FILLER_0_35_225
*1133 FILLER_0_35_235
*1134 FILLER_0_35_241
*1135 FILLER_0_35_251
*1136 FILLER_0_35_27
*1137 FILLER_0_35_273
*1138 FILLER_0_35_278
*1139 FILLER_0_35_3
*1140 FILLER_0_35_329
*1141 FILLER_0_35_39
*1142 FILLER_0_35_51
*1143 FILLER_0_35_55
*1144 FILLER_0_35_57
*1145 FILLER_0_35_69
*1146 FILLER_0_35_81
*1147 FILLER_0_35_93
*1148 FILLER_0_36_109
*1149 FILLER_0_36_121
*1150 FILLER_0_36_133
*1151 FILLER_0_36_139
*1152 FILLER_0_36_141
*1153 FILLER_0_36_15
*1154 FILLER_0_36_153
*1155 FILLER_0_36_165
*1156 FILLER_0_36_177
*1157 FILLER_0_36_197
*1158 FILLER_0_36_208
*1159 FILLER_0_36_214
*1160 FILLER_0_36_251
*1161 FILLER_0_36_256
*1162 FILLER_0_36_27
*1163 FILLER_0_36_29
*1164 FILLER_0_36_3
*1165 FILLER_0_36_306
*1166 FILLER_0_36_309
*1167 FILLER_0_36_330
*1168 FILLER_0_36_334
*1169 FILLER_0_36_41
*1170 FILLER_0_36_53
*1171 FILLER_0_36_65
*1172 FILLER_0_36_77
*1173 FILLER_0_36_83
*1174 FILLER_0_36_85
*1175 FILLER_0_36_97
*1176 FILLER_0_37_104
*1177 FILLER_0_37_109
*1178 FILLER_0_37_113
*1179 FILLER_0_37_125
*1180 FILLER_0_37_137
*1181 FILLER_0_37_149
*1182 FILLER_0_37_15
*1183 FILLER_0_37_161
*1184 FILLER_0_37_167
*1185 FILLER_0_37_169
*1186 FILLER_0_37_181
*1187 FILLER_0_37_189
*1188 FILLER_0_37_212
*1189 FILLER_0_37_236
*1190 FILLER_0_37_257
*1191 FILLER_0_37_27
*1192 FILLER_0_37_278
*1193 FILLER_0_37_3
*1194 FILLER_0_37_39
*1195 FILLER_0_37_51
*1196 FILLER_0_37_55
*1197 FILLER_0_37_57
*1198 FILLER_0_37_69
*1199 FILLER_0_37_78
*1200 FILLER_0_37_90
*1201 FILLER_0_38_10
*1202 FILLER_0_38_102
*1203 FILLER_0_38_106
*1204 FILLER_0_38_110
*1205 FILLER_0_38_113
*1206 FILLER_0_38_118
*1207 FILLER_0_38_122
*1208 FILLER_0_38_126
*1209 FILLER_0_38_130
*1210 FILLER_0_38_134
*1211 FILLER_0_38_14
*1212 FILLER_0_38_144
*1213 FILLER_0_38_150
*1214 FILLER_0_38_154
*1215 FILLER_0_38_158
*1216 FILLER_0_38_162
*1217 FILLER_0_38_166
*1218 FILLER_0_38_169
*1219 FILLER_0_38_174
*1220 FILLER_0_38_18
*1221 FILLER_0_38_186
*1222 FILLER_0_38_200
*1223 FILLER_0_38_208
*1224 FILLER_0_38_214
*1225 FILLER_0_38_22
*1226 FILLER_0_38_225
*1227 FILLER_0_38_278
*1228 FILLER_0_38_298
*1229 FILLER_0_38_32
*1230 FILLER_0_38_333
*1231 FILLER_0_38_38
*1232 FILLER_0_38_42
*1233 FILLER_0_38_46
*1234 FILLER_0_38_50
*1235 FILLER_0_38_54
*1236 FILLER_0_38_57
*1237 FILLER_0_38_6
*1238 FILLER_0_38_62
*1239 FILLER_0_38_74
*1240 FILLER_0_38_78
*1241 FILLER_0_38_88
*1242 FILLER_0_38_96
*1243 FILLER_0_3_105
*1244 FILLER_0_3_111
*1245 FILLER_0_3_113
*1246 FILLER_0_3_125
*1247 FILLER_0_3_137
*1248 FILLER_0_3_149
*1249 FILLER_0_3_15
*1250 FILLER_0_3_161
*1251 FILLER_0_3_167
*1252 FILLER_0_3_169
*1253 FILLER_0_3_181
*1254 FILLER_0_3_193
*1255 FILLER_0_3_205
*1256 FILLER_0_3_217
*1257 FILLER_0_3_223
*1258 FILLER_0_3_225
*1259 FILLER_0_3_237
*1260 FILLER_0_3_249
*1261 FILLER_0_3_261
*1262 FILLER_0_3_27
*1263 FILLER_0_3_273
*1264 FILLER_0_3_279
*1265 FILLER_0_3_281
*1266 FILLER_0_3_293
*1267 FILLER_0_3_3
*1268 FILLER_0_3_305
*1269 FILLER_0_3_317
*1270 FILLER_0_3_329
*1271 FILLER_0_3_39
*1272 FILLER_0_3_51
*1273 FILLER_0_3_55
*1274 FILLER_0_3_57
*1275 FILLER_0_3_69
*1276 FILLER_0_3_81
*1277 FILLER_0_3_93
*1278 FILLER_0_4_109
*1279 FILLER_0_4_121
*1280 FILLER_0_4_133
*1281 FILLER_0_4_139
*1282 FILLER_0_4_141
*1283 FILLER_0_4_15
*1284 FILLER_0_4_153
*1285 FILLER_0_4_165
*1286 FILLER_0_4_177
*1287 FILLER_0_4_189
*1288 FILLER_0_4_195
*1289 FILLER_0_4_197
*1290 FILLER_0_4_209
*1291 FILLER_0_4_221
*1292 FILLER_0_4_233
*1293 FILLER_0_4_245
*1294 FILLER_0_4_251
*1295 FILLER_0_4_253
*1296 FILLER_0_4_265
*1297 FILLER_0_4_27
*1298 FILLER_0_4_277
*1299 FILLER_0_4_289
*1300 FILLER_0_4_29
*1301 FILLER_0_4_3
*1302 FILLER_0_4_301
*1303 FILLER_0_4_307
*1304 FILLER_0_4_309
*1305 FILLER_0_4_321
*1306 FILLER_0_4_333
*1307 FILLER_0_4_41
*1308 FILLER_0_4_53
*1309 FILLER_0_4_65
*1310 FILLER_0_4_77
*1311 FILLER_0_4_83
*1312 FILLER_0_4_85
*1313 FILLER_0_4_97
*1314 FILLER_0_5_105
*1315 FILLER_0_5_111
*1316 FILLER_0_5_113
*1317 FILLER_0_5_125
*1318 FILLER_0_5_137
*1319 FILLER_0_5_149
*1320 FILLER_0_5_15
*1321 FILLER_0_5_161
*1322 FILLER_0_5_167
*1323 FILLER_0_5_169
*1324 FILLER_0_5_181
*1325 FILLER_0_5_193
*1326 FILLER_0_5_205
*1327 FILLER_0_5_217
*1328 FILLER_0_5_223
*1329 FILLER_0_5_225
*1330 FILLER_0_5_237
*1331 FILLER_0_5_249
*1332 FILLER_0_5_261
*1333 FILLER_0_5_27
*1334 FILLER_0_5_273
*1335 FILLER_0_5_279
*1336 FILLER_0_5_281
*1337 FILLER_0_5_293
*1338 FILLER_0_5_3
*1339 FILLER_0_5_305
*1340 FILLER_0_5_317
*1341 FILLER_0_5_329
*1342 FILLER_0_5_39
*1343 FILLER_0_5_51
*1344 FILLER_0_5_55
*1345 FILLER_0_5_57
*1346 FILLER_0_5_69
*1347 FILLER_0_5_81
*1348 FILLER_0_5_93
*1349 FILLER_0_6_109
*1350 FILLER_0_6_121
*1351 FILLER_0_6_133
*1352 FILLER_0_6_139
*1353 FILLER_0_6_141
*1354 FILLER_0_6_15
*1355 FILLER_0_6_153
*1356 FILLER_0_6_165
*1357 FILLER_0_6_177
*1358 FILLER_0_6_189
*1359 FILLER_0_6_195
*1360 FILLER_0_6_197
*1361 FILLER_0_6_209
*1362 FILLER_0_6_221
*1363 FILLER_0_6_233
*1364 FILLER_0_6_245
*1365 FILLER_0_6_251
*1366 FILLER_0_6_253
*1367 FILLER_0_6_265
*1368 FILLER_0_6_27
*1369 FILLER_0_6_277
*1370 FILLER_0_6_289
*1371 FILLER_0_6_29
*1372 FILLER_0_6_3
*1373 FILLER_0_6_301
*1374 FILLER_0_6_307
*1375 FILLER_0_6_309
*1376 FILLER_0_6_321
*1377 FILLER_0_6_333
*1378 FILLER_0_6_41
*1379 FILLER_0_6_53
*1380 FILLER_0_6_65
*1381 FILLER_0_6_77
*1382 FILLER_0_6_83
*1383 FILLER_0_6_85
*1384 FILLER_0_6_97
*1385 FILLER_0_7_105
*1386 FILLER_0_7_111
*1387 FILLER_0_7_113
*1388 FILLER_0_7_125
*1389 FILLER_0_7_137
*1390 FILLER_0_7_149
*1391 FILLER_0_7_15
*1392 FILLER_0_7_161
*1393 FILLER_0_7_167
*1394 FILLER_0_7_169
*1395 FILLER_0_7_181
*1396 FILLER_0_7_193
*1397 FILLER_0_7_205
*1398 FILLER_0_7_217
*1399 FILLER_0_7_223
*1400 FILLER_0_7_225
*1401 FILLER_0_7_237
*1402 FILLER_0_7_249
*1403 FILLER_0_7_261
*1404 FILLER_0_7_27
*1405 FILLER_0_7_273
*1406 FILLER_0_7_279
*1407 FILLER_0_7_281
*1408 FILLER_0_7_293
*1409 FILLER_0_7_3
*1410 FILLER_0_7_305
*1411 FILLER_0_7_317
*1412 FILLER_0_7_329
*1413 FILLER_0_7_39
*1414 FILLER_0_7_51
*1415 FILLER_0_7_55
*1416 FILLER_0_7_57
*1417 FILLER_0_7_69
*1418 FILLER_0_7_81
*1419 FILLER_0_7_93
*1420 FILLER_0_8_109
*1421 FILLER_0_8_121
*1422 FILLER_0_8_133
*1423 FILLER_0_8_139
*1424 FILLER_0_8_141
*1425 FILLER_0_8_15
*1426 FILLER_0_8_153
*1427 FILLER_0_8_165
*1428 FILLER_0_8_177
*1429 FILLER_0_8_189
*1430 FILLER_0_8_195
*1431 FILLER_0_8_197
*1432 FILLER_0_8_209
*1433 FILLER_0_8_221
*1434 FILLER_0_8_233
*1435 FILLER_0_8_245
*1436 FILLER_0_8_251
*1437 FILLER_0_8_253
*1438 FILLER_0_8_265
*1439 FILLER_0_8_27
*1440 FILLER_0_8_277
*1441 FILLER_0_8_289
*1442 FILLER_0_8_29
*1443 FILLER_0_8_3
*1444 FILLER_0_8_301
*1445 FILLER_0_8_307
*1446 FILLER_0_8_309
*1447 FILLER_0_8_321
*1448 FILLER_0_8_333
*1449 FILLER_0_8_41
*1450 FILLER_0_8_53
*1451 FILLER_0_8_65
*1452 FILLER_0_8_77
*1453 FILLER_0_8_83
*1454 FILLER_0_8_85
*1455 FILLER_0_8_97
*1456 FILLER_0_9_105
*1457 FILLER_0_9_111
*1458 FILLER_0_9_113
*1459 FILLER_0_9_125
*1460 FILLER_0_9_137
*1461 FILLER_0_9_149
*1462 FILLER_0_9_15
*1463 FILLER_0_9_161
*1464 FILLER_0_9_167
*1465 FILLER_0_9_169
*1466 FILLER_0_9_181
*1467 FILLER_0_9_193
*1468 FILLER_0_9_205
*1469 FILLER_0_9_217
*1470 FILLER_0_9_223
*1471 FILLER_0_9_225
*1472 FILLER_0_9_237
*1473 FILLER_0_9_249
*1474 FILLER_0_9_261
*1475 FILLER_0_9_27
*1476 FILLER_0_9_273
*1477 FILLER_0_9_279
*1478 FILLER_0_9_281
*1479 FILLER_0_9_293
*1480 FILLER_0_9_3
*1481 FILLER_0_9_305
*1482 FILLER_0_9_317
*1483 FILLER_0_9_329
*1484 FILLER_0_9_39
*1485 FILLER_0_9_51
*1486 FILLER_0_9_55
*1487 FILLER_0_9_57
*1488 FILLER_0_9_69
*1489 FILLER_0_9_81
*1490 FILLER_0_9_93
*1491 PHY_EDGE_ROW_0_Left_39
*1492 PHY_EDGE_ROW_0_Right_0
*1493 PHY_EDGE_ROW_10_Left_49