*SPEF "ieee 1481-1999"
*DESIGN "tt_um_wokwi_395055455727667201"
*DATE "00:39:11 Thursday April 18, 2024"
*VENDOR "The OpenROAD Project"
*PROGRAM "OpenROAD"
*VERSION "0889970d1790a2617e69f253221b8bd7626e51dc"
*DESIGN_FLOW "NAME_SCOPE LOCAL" "PIN_CAP NONE"
*DIVIDER /
*DELIMITER :
*BUS_DELIMITER []
*T_UNIT 1 NS
*C_UNIT 1 PF
*R_UNIT 1 OHM
*L_UNIT 1 HENRY

*NAME_MAP
*3 clk
*4 ena
*5 rst_n
*6 ui_in[0]
*7 ui_in[1]
*8 ui_in[2]
*9 ui_in[3]
*10 ui_in[4]
*11 ui_in[5]
*12 ui_in[6]
*13 ui_in[7]
*14 uio_in[0]
*15 uio_in[1]
*16 uio_in[2]
*17 uio_in[3]
*18 uio_in[4]
*19 uio_in[5]
*20 uio_in[6]
*21 uio_in[7]
*22 net14
*23 net15
*24 net16
*25 net17
*26 net32
*27 net18
*28 net19
*29 net33
*30 net20
*31 net21
*32 net22
*33 net23
*34 uio_out[4]
*35 net24
*36 net25
*37 uio_out[7]
*38 uo_out[0]
*39 uo_out[1]
*40 net26
*41 net27
*42 net28
*43 net29
*44 net30
*45 net31
*46 _000_
*47 _001_
*48 _002_
*49 _003_
*50 _004_
*51 _005_
*52 _006_
*53 _007_
*54 _008_
*55 _009_
*56 _010_
*57 _011_
*58 _012_
*59 _013_
*60 _014_
*61 _015_
*62 _016_
*63 _017_
*64 _018_
*65 _019_
*66 _020_
*67 _021_
*68 _022_
*69 _023_
*70 _024_
*71 _025_
*72 _026_
*73 _027_
*74 _028_
*75 _029_
*76 _030_
*77 _031_
*78 _032_
*79 _033_
*80 clknet_0_clk
*81 clknet_1_0__leaf_clk
*82 clknet_1_1__leaf_clk
*83 flop1\.d
*84 flop1\.q
*85 flop10\.d
*86 flop10\.q
*87 flop11\.d
*88 flop11\.q
*89 flop12\.d
*90 flop12\.q
*91 flop13\.d
*92 flop13\.q
*93 flop14\.d
*94 flop14\.q
*95 flop15\.d
*96 flop15\.q
*97 flop16\.d
*98 flop16\.q
*99 flop17\.d
*100 flop17\.q
*101 flop18\.d
*102 flop18\.q
*103 flop19\.d
*104 flop19\.q
*105 flop2\.d
*106 flop2\.q
*107 flop20\.d
*108 flop20\.q
*109 flop3\.d
*110 flop3\.q
*111 flop4\.d
*112 flop4\.q
*113 flop5\.d
*114 flop5\.q
*115 flop6\.d
*116 flop6\.q
*117 flop7\.d
*118 flop7\.q
*119 flop8\.d
*120 flop8\.q
*121 flop9\.d
*122 flop9\.q
*123 mux1\.a
*124 mux2\.a
*125 net1
*126 net10
*127 net11
*128 net12
*129 net13
*130 net2
*131 net3
*132 net34
*133 net35
*134 net36
*135 net37
*136 net38
*137 net39
*138 net4
*139 net40
*140 net41
*141 net42
*142 net43
*143 net44
*144 net45
*145 net46
*146 net47
*147 net48
*148 net49
*149 net5
*150 net6
*151 net7
*152 net8
*153 net9
*154 not1\.out
*155 FILLER_0_0_109
*156 FILLER_0_0_113
*157 FILLER_0_0_125
*158 FILLER_0_0_137
*159 FILLER_0_0_141
*160 FILLER_0_0_15
*161 FILLER_0_0_153
*162 FILLER_0_0_165
*163 FILLER_0_0_169
*164 FILLER_0_0_181
*165 FILLER_0_0_193
*166 FILLER_0_0_197
*167 FILLER_0_0_209
*168 FILLER_0_0_221
*169 FILLER_0_0_225
*170 FILLER_0_0_237
*171 FILLER_0_0_249
*172 FILLER_0_0_253
*173 FILLER_0_0_265
*174 FILLER_0_0_27
*175 FILLER_0_0_277
*176 FILLER_0_0_281
*177 FILLER_0_0_29
*178 FILLER_0_0_293
*179 FILLER_0_0_3
*180 FILLER_0_0_305
*181 FILLER_0_0_309
*182 FILLER_0_0_321
*183 FILLER_0_0_333
*184 FILLER_0_0_41
*185 FILLER_0_0_53
*186 FILLER_0_0_57
*187 FILLER_0_0_69
*188 FILLER_0_0_81
*189 FILLER_0_0_85
*190 FILLER_0_0_97
*191 FILLER_0_10_109
*192 FILLER_0_10_121
*193 FILLER_0_10_133
*194 FILLER_0_10_139
*195 FILLER_0_10_141
*196 FILLER_0_10_15
*197 FILLER_0_10_153
*198 FILLER_0_10_165
*199 FILLER_0_10_177
*200 FILLER_0_10_189
*201 FILLER_0_10_195
*202 FILLER_0_10_197
*203 FILLER_0_10_209
*204 FILLER_0_10_221
*205 FILLER_0_10_233
*206 FILLER_0_10_245
*207 FILLER_0_10_251
*208 FILLER_0_10_253
*209 FILLER_0_10_265
*210 FILLER_0_10_27
*211 FILLER_0_10_277
*212 FILLER_0_10_289
*213 FILLER_0_10_29
*214 FILLER_0_10_3
*215 FILLER_0_10_301
*216 FILLER_0_10_307
*217 FILLER_0_10_309
*218 FILLER_0_10_321
*219 FILLER_0_10_333
*220 FILLER_0_10_41
*221 FILLER_0_10_53
*222 FILLER_0_10_65
*223 FILLER_0_10_77
*224 FILLER_0_10_83
*225 FILLER_0_10_85
*226 FILLER_0_10_97
*227 FILLER_0_11_105
*228 FILLER_0_11_111
*229 FILLER_0_11_113
*230 FILLER_0_11_125
*231 FILLER_0_11_137
*232 FILLER_0_11_149
*233 FILLER_0_11_15
*234 FILLER_0_11_161
*235 FILLER_0_11_167
*236 FILLER_0_11_169
*237 FILLER_0_11_181
*238 FILLER_0_11_193
*239 FILLER_0_11_205
*240 FILLER_0_11_217
*241 FILLER_0_11_223
*242 FILLER_0_11_225
*243 FILLER_0_11_237
*244 FILLER_0_11_249
*245 FILLER_0_11_261
*246 FILLER_0_11_27
*247 FILLER_0_11_273
*248 FILLER_0_11_279
*249 FILLER_0_11_281
*250 FILLER_0_11_293
*251 FILLER_0_11_3
*252 FILLER_0_11_305
*253 FILLER_0_11_317
*254 FILLER_0_11_329
*255 FILLER_0_11_39
*256 FILLER_0_11_51
*257 FILLER_0_11_55
*258 FILLER_0_11_57
*259 FILLER_0_11_69
*260 FILLER_0_11_81
*261 FILLER_0_11_93
*262 FILLER_0_12_109
*263 FILLER_0_12_121
*264 FILLER_0_12_133
*265 FILLER_0_12_139
*266 FILLER_0_12_141
*267 FILLER_0_12_15
*268 FILLER_0_12_153
*269 FILLER_0_12_165
*270 FILLER_0_12_177
*271 FILLER_0_12_189
*272 FILLER_0_12_195
*273 FILLER_0_12_197
*274 FILLER_0_12_209
*275 FILLER_0_12_221
*276 FILLER_0_12_233
*277 FILLER_0_12_245
*278 FILLER_0_12_251
*279 FILLER_0_12_253
*280 FILLER_0_12_265
*281 FILLER_0_12_27
*282 FILLER_0_12_277
*283 FILLER_0_12_289
*284 FILLER_0_12_29
*285 FILLER_0_12_3
*286 FILLER_0_12_301
*287 FILLER_0_12_307
*288 FILLER_0_12_309
*289 FILLER_0_12_321
*290 FILLER_0_12_333
*291 FILLER_0_12_41
*292 FILLER_0_12_53
*293 FILLER_0_12_65
*294 FILLER_0_12_77
*295 FILLER_0_12_83
*296 FILLER_0_12_85
*297 FILLER_0_12_97
*298 FILLER_0_13_105
*299 FILLER_0_13_111
*300 FILLER_0_13_113
*301 FILLER_0_13_125
*302 FILLER_0_13_137
*303 FILLER_0_13_149
*304 FILLER_0_13_15
*305 FILLER_0_13_161
*306 FILLER_0_13_167
*307 FILLER_0_13_169
*308 FILLER_0_13_181
*309 FILLER_0_13_193
*310 FILLER_0_13_205
*311 FILLER_0_13_217
*312 FILLER_0_13_223
*313 FILLER_0_13_225
*314 FILLER_0_13_237
*315 FILLER_0_13_249
*316 FILLER_0_13_261
*317 FILLER_0_13_27
*318 FILLER_0_13_273
*319 FILLER_0_13_279
*320 FILLER_0_13_281
*321 FILLER_0_13_293
*322 FILLER_0_13_3
*323 FILLER_0_13_305
*324 FILLER_0_13_317
*325 FILLER_0_13_329
*326 FILLER_0_13_39
*327 FILLER_0_13_51
*328 FILLER_0_13_55
*329 FILLER_0_13_57
*330 FILLER_0_13_69
*331 FILLER_0_13_81
*332 FILLER_0_13_93
*333 FILLER_0_14_109
*334 FILLER_0_14_121
*335 FILLER_0_14_133
*336 FILLER_0_14_139
*337 FILLER_0_14_141
*338 FILLER_0_14_15
*339 FILLER_0_14_153
*340 FILLER_0_14_165
*341 FILLER_0_14_177
*342 FILLER_0_14_189
*343 FILLER_0_14_195
*344 FILLER_0_14_197
*345 FILLER_0_14_209
*346 FILLER_0_14_221
*347 FILLER_0_14_233
*348 FILLER_0_14_245
*349 FILLER_0_14_251
*350 FILLER_0_14_253
*351 FILLER_0_14_265
*352 FILLER_0_14_27
*353 FILLER_0_14_277
*354 FILLER_0_14_289
*355 FILLER_0_14_29
*356 FILLER_0_14_3
*357 FILLER_0_14_301
*358 FILLER_0_14_307
*359 FILLER_0_14_309
*360 FILLER_0_14_321
*361 FILLER_0_14_333
*362 FILLER_0_14_41
*363 FILLER_0_14_53
*364 FILLER_0_14_65
*365 FILLER_0_14_77
*366 FILLER_0_14_83
*367 FILLER_0_14_85
*368 FILLER_0_14_97
*369 FILLER_0_15_105
*370 FILLER_0_15_111
*371 FILLER_0_15_113
*372 FILLER_0_15_125
*373 FILLER_0_15_137
*374 FILLER_0_15_149
*375 FILLER_0_15_15
*376 FILLER_0_15_161
*377 FILLER_0_15_167
*378 FILLER_0_15_169
*379 FILLER_0_15_181
*380 FILLER_0_15_193
*381 FILLER_0_15_205
*382 FILLER_0_15_217
*383 FILLER_0_15_223
*384 FILLER_0_15_225
*385 FILLER_0_15_237
*386 FILLER_0_15_249
*387 FILLER_0_15_261
*388 FILLER_0_15_27
*389 FILLER_0_15_273
*390 FILLER_0_15_279
*391 FILLER_0_15_281
*392 FILLER_0_15_293
*393 FILLER_0_15_3
*394 FILLER_0_15_305
*395 FILLER_0_15_317
*396 FILLER_0_15_329
*397 FILLER_0_15_39
*398 FILLER_0_15_51
*399 FILLER_0_15_55
*400 FILLER_0_15_57
*401 FILLER_0_15_69
*402 FILLER_0_15_81
*403 FILLER_0_15_93
*404 FILLER_0_16_109
*405 FILLER_0_16_121
*406 FILLER_0_16_133
*407 FILLER_0_16_139
*408 FILLER_0_16_141
*409 FILLER_0_16_15
*410 FILLER_0_16_153
*411 FILLER_0_16_165
*412 FILLER_0_16_177
*413 FILLER_0_16_189
*414 FILLER_0_16_195
*415 FILLER_0_16_197
*416 FILLER_0_16_209
*417 FILLER_0_16_221
*418 FILLER_0_16_233
*419 FILLER_0_16_245
*420 FILLER_0_16_251
*421 FILLER_0_16_253
*422 FILLER_0_16_265
*423 FILLER_0_16_27
*424 FILLER_0_16_277
*425 FILLER_0_16_289
*426 FILLER_0_16_29
*427 FILLER_0_16_3
*428 FILLER_0_16_301
*429 FILLER_0_16_307
*430 FILLER_0_16_309
*431 FILLER_0_16_321
*432 FILLER_0_16_333
*433 FILLER_0_16_41
*434 FILLER_0_16_53
*435 FILLER_0_16_65
*436 FILLER_0_16_77
*437 FILLER_0_16_83
*438 FILLER_0_16_85
*439 FILLER_0_16_97
*440 FILLER_0_17_105
*441 FILLER_0_17_111
*442 FILLER_0_17_113
*443 FILLER_0_17_125
*444 FILLER_0_17_137
*445 FILLER_0_17_149
*446 FILLER_0_17_15
*447 FILLER_0_17_161
*448 FILLER_0_17_167
*449 FILLER_0_17_169
*450 FILLER_0_17_181
*451 FILLER_0_17_193
*452 FILLER_0_17_205
*453 FILLER_0_17_217
*454 FILLER_0_17_223
*455 FILLER_0_17_225
*456 FILLER_0_17_237
*457 FILLER_0_17_249
*458 FILLER_0_17_261
*459 FILLER_0_17_27
*460 FILLER_0_17_273
*461 FILLER_0_17_279
*462 FILLER_0_17_281
*463 FILLER_0_17_293
*464 FILLER_0_17_3
*465 FILLER_0_17_305
*466 FILLER_0_17_317
*467 FILLER_0_17_329
*468 FILLER_0_17_39
*469 FILLER_0_17_51
*470 FILLER_0_17_55
*471 FILLER_0_17_57
*472 FILLER_0_17_69
*473 FILLER_0_17_81
*474 FILLER_0_17_93
*475 FILLER_0_18_109
*476 FILLER_0_18_121
*477 FILLER_0_18_133
*478 FILLER_0_18_139
*479 FILLER_0_18_141
*480 FILLER_0_18_15
*481 FILLER_0_18_153
*482 FILLER_0_18_165
*483 FILLER_0_18_177
*484 FILLER_0_18_189
*485 FILLER_0_18_195
*486 FILLER_0_18_197
*487 FILLER_0_18_209
*488 FILLER_0_18_221
*489 FILLER_0_18_233
*490 FILLER_0_18_245
*491 FILLER_0_18_251
*492 FILLER_0_18_253
*493 FILLER_0_18_265
*494 FILLER_0_18_27
*495 FILLER_0_18_277
*496 FILLER_0_18_289
*497 FILLER_0_18_29
*498 FILLER_0_18_3
*499 FILLER_0_18_301
*500 FILLER_0_18_307
*501 FILLER_0_18_309
*502 FILLER_0_18_321
*503 FILLER_0_18_333
*504 FILLER_0_18_41
*505 FILLER_0_18_53
*506 FILLER_0_18_65
*507 FILLER_0_18_77
*508 FILLER_0_18_83
*509 FILLER_0_18_85
*510 FILLER_0_18_97
*511 FILLER_0_19_105
*512 FILLER_0_19_111
*513 FILLER_0_19_113
*514 FILLER_0_19_125
*515 FILLER_0_19_137
*516 FILLER_0_19_149
*517 FILLER_0_19_15
*518 FILLER_0_19_161
*519 FILLER_0_19_167
*520 FILLER_0_19_169
*521 FILLER_0_19_181
*522 FILLER_0_19_193
*523 FILLER_0_19_205
*524 FILLER_0_19_217
*525 FILLER_0_19_223
*526 FILLER_0_19_225
*527 FILLER_0_19_237
*528 FILLER_0_19_249
*529 FILLER_0_19_261
*530 FILLER_0_19_27
*531 FILLER_0_19_273
*532 FILLER_0_19_279
*533 FILLER_0_19_281
*534 FILLER_0_19_293
*535 FILLER_0_19_3
*536 FILLER_0_19_305
*537 FILLER_0_19_317
*538 FILLER_0_19_329
*539 FILLER_0_19_39
*540 FILLER_0_19_51
*541 FILLER_0_19_55
*542 FILLER_0_19_57
*543 FILLER_0_19_69
*544 FILLER_0_19_81
*545 FILLER_0_19_93
*546 FILLER_0_1_105
*547 FILLER_0_1_111
*548 FILLER_0_1_113
*549 FILLER_0_1_125
*550 FILLER_0_1_137
*551 FILLER_0_1_149
*552 FILLER_0_1_15
*553 FILLER_0_1_161
*554 FILLER_0_1_167
*555 FILLER_0_1_169
*556 FILLER_0_1_181
*557 FILLER_0_1_193
*558 FILLER_0_1_205
*559 FILLER_0_1_217
*560 FILLER_0_1_223
*561 FILLER_0_1_225
*562 FILLER_0_1_237
*563 FILLER_0_1_249
*564 FILLER_0_1_261
*565 FILLER_0_1_27
*566 FILLER_0_1_273
*567 FILLER_0_1_279
*568 FILLER_0_1_281
*569 FILLER_0_1_293
*570 FILLER_0_1_3
*571 FILLER_0_1_305
*572 FILLER_0_1_317
*573 FILLER_0_1_329
*574 FILLER_0_1_39
*575 FILLER_0_1_51
*576 FILLER_0_1_55
*577 FILLER_0_1_57
*578 FILLER_0_1_69
*579 FILLER_0_1_81
*580 FILLER_0_1_93
*581 FILLER_0_20_109
*582 FILLER_0_20_121
*583 FILLER_0_20_133
*584 FILLER_0_20_139
*585 FILLER_0_20_141
*586 FILLER_0_20_15
*587 FILLER_0_20_153
*588 FILLER_0_20_165
*589 FILLER_0_20_177
*590 FILLER_0_20_189
*591 FILLER_0_20_195
*592 FILLER_0_20_197
*593 FILLER_0_20_209
*594 FILLER_0_20_221
*595 FILLER_0_20_233
*596 FILLER_0_20_245
*597 FILLER_0_20_251
*598 FILLER_0_20_253
*599 FILLER_0_20_265
*600 FILLER_0_20_27
*601 FILLER_0_20_277
*602 FILLER_0_20_289
*603 FILLER_0_20_29
*604 FILLER_0_20_3
*605 FILLER_0_20_301
*606 FILLER_0_20_307
*607 FILLER_0_20_309
*608 FILLER_0_20_321
*609 FILLER_0_20_333
*610 FILLER_0_20_41
*611 FILLER_0_20_53
*612 FILLER_0_20_65
*613 FILLER_0_20_77
*614 FILLER_0_20_83
*615 FILLER_0_20_85
*616 FILLER_0_20_97
*617 FILLER_0_21_105
*618 FILLER_0_21_111
*619 FILLER_0_21_113
*620 FILLER_0_21_125
*621 FILLER_0_21_137
*622 FILLER_0_21_149
*623 FILLER_0_21_15
*624 FILLER_0_21_161
*625 FILLER_0_21_167
*626 FILLER_0_21_169
*627 FILLER_0_21_181
*628 FILLER_0_21_193
*629 FILLER_0_21_205
*630 FILLER_0_21_217
*631 FILLER_0_21_223
*632 FILLER_0_21_225
*633 FILLER_0_21_237
*634 FILLER_0_21_249
*635 FILLER_0_21_261
*636 FILLER_0_21_27
*637 FILLER_0_21_273
*638 FILLER_0_21_279
*639 FILLER_0_21_281
*640 FILLER_0_21_293
*641 FILLER_0_21_3
*642 FILLER_0_21_305
*643 FILLER_0_21_317
*644 FILLER_0_21_329
*645 FILLER_0_21_39
*646 FILLER_0_21_51
*647 FILLER_0_21_55
*648 FILLER_0_21_57
*649 FILLER_0_21_69
*650 FILLER_0_21_81
*651 FILLER_0_21_93
*652 FILLER_0_22_109
*653 FILLER_0_22_121
*654 FILLER_0_22_133
*655 FILLER_0_22_139
*656 FILLER_0_22_141
*657 FILLER_0_22_15
*658 FILLER_0_22_153
*659 FILLER_0_22_165
*660 FILLER_0_22_177
*661 FILLER_0_22_189
*662 FILLER_0_22_195
*663 FILLER_0_22_197
*664 FILLER_0_22_209
*665 FILLER_0_22_221
*666 FILLER_0_22_233
*667 FILLER_0_22_245
*668 FILLER_0_22_251
*669 FILLER_0_22_253
*670 FILLER_0_22_265
*671 FILLER_0_22_27
*672 FILLER_0_22_277
*673 FILLER_0_22_289
*674 FILLER_0_22_29
*675 FILLER_0_22_3
*676 FILLER_0_22_301
*677 FILLER_0_22_307
*678 FILLER_0_22_309
*679 FILLER_0_22_321
*680 FILLER_0_22_333
*681 FILLER_0_22_41
*682 FILLER_0_22_53
*683 FILLER_0_22_65
*684 FILLER_0_22_77
*685 FILLER_0_22_83
*686 FILLER_0_22_85
*687 FILLER_0_22_97
*688 FILLER_0_23_105
*689 FILLER_0_23_111
*690 FILLER_0_23_113
*691 FILLER_0_23_125
*692 FILLER_0_23_137
*693 FILLER_0_23_149
*694 FILLER_0_23_15
*695 FILLER_0_23_161
*696 FILLER_0_23_167
*697 FILLER_0_23_169
*698 FILLER_0_23_181
*699 FILLER_0_23_193
*700 FILLER_0_23_205
*701 FILLER_0_23_217
*702 FILLER_0_23_223
*703 FILLER_0_23_225
*704 FILLER_0_23_237
*705 FILLER_0_23_249
*706 FILLER_0_23_261
*707 FILLER_0_23_27
*708 FILLER_0_23_273
*709 FILLER_0_23_279
*710 FILLER_0_23_281
*711 FILLER_0_23_293
*712 FILLER_0_23_3
*713 FILLER_0_23_305
*714 FILLER_0_23_317
*715 FILLER_0_23_329
*716 FILLER_0_23_39
*717 FILLER_0_23_51
*718 FILLER_0_23_55
*719 FILLER_0_23_57
*720 FILLER_0_23_69
*721 FILLER_0_23_81
*722 FILLER_0_23_93
*723 FILLER_0_24_109
*724 FILLER_0_24_121
*725 FILLER_0_24_133
*726 FILLER_0_24_139
*727 FILLER_0_24_141
*728 FILLER_0_24_15
*729 FILLER_0_24_153
*730 FILLER_0_24_165
*731 FILLER_0_24_177
*732 FILLER_0_24_189
*733 FILLER_0_24_195
*734 FILLER_0_24_197
*735 FILLER_0_24_209
*736 FILLER_0_24_221
*737 FILLER_0_24_233
*738 FILLER_0_24_245
*739 FILLER_0_24_251
*740 FILLER_0_24_253
*741 FILLER_0_24_265
*742 FILLER_0_24_27
*743 FILLER_0_24_277
*744 FILLER_0_24_289
*745 FILLER_0_24_29
*746 FILLER_0_24_3
*747 FILLER_0_24_301
*748 FILLER_0_24_307
*749 FILLER_0_24_309
*750 FILLER_0_24_321
*751 FILLER_0_24_333
*752 FILLER_0_24_41
*753 FILLER_0_24_53
*754 FILLER_0_24_65
*755 FILLER_0_24_77
*756 FILLER_0_24_83
*757 FILLER_0_24_85
*758 FILLER_0_24_97
*759 FILLER_0_25_105
*760 FILLER_0_25_111
*761 FILLER_0_25_113
*762 FILLER_0_25_125
*763 FILLER_0_25_137
*764 FILLER_0_25_149
*765 FILLER_0_25_15
*766 FILLER_0_25_161
*767 FILLER_0_25_167
*768 FILLER_0_25_169
*769 FILLER_0_25_181
*770 FILLER_0_25_193
*771 FILLER_0_25_205
*772 FILLER_0_25_217
*773 FILLER_0_25_223
*774 FILLER_0_25_225
*775 FILLER_0_25_237
*776 FILLER_0_25_249
*777 FILLER_0_25_261
*778 FILLER_0_25_27
*779 FILLER_0_25_273
*780 FILLER_0_25_279
*781 FILLER_0_25_281
*782 FILLER_0_25_293
*783 FILLER_0_25_3
*784 FILLER_0_25_305
*785 FILLER_0_25_317
*786 FILLER_0_25_329
*787 FILLER_0_25_39
*788 FILLER_0_25_51
*789 FILLER_0_25_55
*790 FILLER_0_25_57
*791 FILLER_0_25_69
*792 FILLER_0_25_81
*793 FILLER_0_25_93
*794 FILLER_0_26_109
*795 FILLER_0_26_121
*796 FILLER_0_26_133
*797 FILLER_0_26_139
*798 FILLER_0_26_141
*799 FILLER_0_26_15
*800 FILLER_0_26_153
*801 FILLER_0_26_165
*802 FILLER_0_26_177
*803 FILLER_0_26_189
*804 FILLER_0_26_195
*805 FILLER_0_26_197
*806 FILLER_0_26_209
*807 FILLER_0_26_221
*808 FILLER_0_26_233
*809 FILLER_0_26_245
*810 FILLER_0_26_251
*811 FILLER_0_26_253
*812 FILLER_0_26_265
*813 FILLER_0_26_27
*814 FILLER_0_26_277
*815 FILLER_0_26_289
*816 FILLER_0_26_29
*817 FILLER_0_26_3
*818 FILLER_0_26_301
*819 FILLER_0_26_307
*820 FILLER_0_26_309
*821 FILLER_0_26_321
*822 FILLER_0_26_333
*823 FILLER_0_26_41
*824 FILLER_0_26_53
*825 FILLER_0_26_65
*826 FILLER_0_26_77
*827 FILLER_0_26_83
*828 FILLER_0_26_85
*829 FILLER_0_26_97
*830 FILLER_0_27_105
*831 FILLER_0_27_111
*832 FILLER_0_27_113
*833 FILLER_0_27_125
*834 FILLER_0_27_137
*835 FILLER_0_27_149
*836 FILLER_0_27_15
*837 FILLER_0_27_161
*838 FILLER_0_27_167
*839 FILLER_0_27_169
*840 FILLER_0_27_181
*841 FILLER_0_27_193
*842 FILLER_0_27_205
*843 FILLER_0_27_217
*844 FILLER_0_27_223
*845 FILLER_0_27_225
*846 FILLER_0_27_237
*847 FILLER_0_27_249
*848 FILLER_0_27_261
*849 FILLER_0_27_27
*850 FILLER_0_27_273
*851 FILLER_0_27_279
*852 FILLER_0_27_281
*853 FILLER_0_27_293
*854 FILLER_0_27_3
*855 FILLER_0_27_305
*856 FILLER_0_27_317
*857 FILLER_0_27_329
*858 FILLER_0_27_39
*859 FILLER_0_27_51
*860 FILLER_0_27_55
*861 FILLER_0_27_57
*862 FILLER_0_27_69
*863 FILLER_0_27_81
*864 FILLER_0_27_93
*865 FILLER_0_28_109
*866 FILLER_0_28_121
*867 FILLER_0_28_133
*868 FILLER_0_28_139
*869 FILLER_0_28_141
*870 FILLER_0_28_15
*871 FILLER_0_28_153
*872 FILLER_0_28_165
*873 FILLER_0_28_177
*874 FILLER_0_28_189
*875 FILLER_0_28_195
*876 FILLER_0_28_197
*877 FILLER_0_28_209
*878 FILLER_0_28_221
*879 FILLER_0_28_233
*880 FILLER_0_28_245
*881 FILLER_0_28_251
*882 FILLER_0_28_253
*883 FILLER_0_28_265
*884 FILLER_0_28_27
*885 FILLER_0_28_277
*886 FILLER_0_28_289
*887 FILLER_0_28_29
*888 FILLER_0_28_3
*889 FILLER_0_28_301
*890 FILLER_0_28_307
*891 FILLER_0_28_309
*892 FILLER_0_28_321
*893 FILLER_0_28_333
*894 FILLER_0_28_41
*895 FILLER_0_28_53
*896 FILLER_0_28_65
*897 FILLER_0_28_77
*898 FILLER_0_28_83
*899 FILLER_0_28_85
*900 FILLER_0_28_97
*901 FILLER_0_29_105
*902 FILLER_0_29_111
*903 FILLER_0_29_113
*904 FILLER_0_29_125
*905 FILLER_0_29_137
*906 FILLER_0_29_149
*907 FILLER_0_29_15
*908 FILLER_0_29_161
*909 FILLER_0_29_167
*910 FILLER_0_29_169
*911 FILLER_0_29_181
*912 FILLER_0_29_193
*913 FILLER_0_29_205
*914 FILLER_0_29_217
*915 FILLER_0_29_223
*916 FILLER_0_29_225
*917 FILLER_0_29_237
*918 FILLER_0_29_249
*919 FILLER_0_29_261
*920 FILLER_0_29_27
*921 FILLER_0_29_273
*922 FILLER_0_29_279
*923 FILLER_0_29_281
*924 FILLER_0_29_293
*925 FILLER_0_29_3
*926 FILLER_0_29_305
*927 FILLER_0_29_317
*928 FILLER_0_29_329
*929 FILLER_0_29_39
*930 FILLER_0_29_51
*931 FILLER_0_29_55
*932 FILLER_0_29_57
*933 FILLER_0_29_69
*934 FILLER_0_29_81
*935 FILLER_0_29_93
*936 FILLER_0_2_109
*937 FILLER_0_2_121
*938 FILLER_0_2_133
*939 FILLER_0_2_139
*940 FILLER_0_2_141
*941 FILLER_0_2_15
*942 FILLER_0_2_153
*943 FILLER_0_2_165
*944 FILLER_0_2_177
*945 FILLER_0_2_189
*946 FILLER_0_2_195
*947 FILLER_0_2_197
*948 FILLER_0_2_209
*949 FILLER_0_2_221
*950 FILLER_0_2_233
*951 FILLER_0_2_245
*952 FILLER_0_2_251
*953 FILLER_0_2_253
*954 FILLER_0_2_265
*955 FILLER_0_2_27
*956 FILLER_0_2_277
*957 FILLER_0_2_289
*958 FILLER_0_2_29
*959 FILLER_0_2_3
*960 FILLER_0_2_301
*961 FILLER_0_2_307
*962 FILLER_0_2_309
*963 FILLER_0_2_321
*964 FILLER_0_2_333
*965 FILLER_0_2_41
*966 FILLER_0_2_53
*967 FILLER_0_2_65
*968 FILLER_0_2_77
*969 FILLER_0_2_83
*970 FILLER_0_2_85
*971 FILLER_0_2_97
*972 FILLER_0_30_109
*973 FILLER_0_30_121
*974 FILLER_0_30_133
*975 FILLER_0_30_139
*976 FILLER_0_30_141
*977 FILLER_0_30_15
*978 FILLER_0_30_153
*979 FILLER_0_30_165
*980 FILLER_0_30_177
*981 FILLER_0_30_189
*982 FILLER_0_30_195
*983 FILLER_0_30_197
*984 FILLER_0_30_209
*985 FILLER_0_30_221
*986 FILLER_0_30_233
*987 FILLER_0_30_245
*988 FILLER_0_30_251
*989 FILLER_0_30_253
*990 FILLER_0_30_265
*991 FILLER_0_30_27
*992 FILLER_0_30_277
*993 FILLER_0_30_289
*994 FILLER_0_30_29
*995 FILLER_0_30_3
*996 FILLER_0_30_301
*997 FILLER_0_30_307
*998 FILLER_0_30_309
*999 FILLER_0_30_321
*1000 FILLER_0_30_333
*1001 FILLER_0_30_41
*1002 FILLER_0_30_53
*1003 FILLER_0_30_65
*1004 FILLER_0_30_77
*1005 FILLER_0_30_83
*1006 FILLER_0_30_85
*1007 FILLER_0_30_97
*1008 FILLER_0_31_105
*1009 FILLER_0_31_111
*1010 FILLER_0_31_113
*1011 FILLER_0_31_125
*1012 FILLER_0_31_137
*1013 FILLER_0_31_149
*1014 FILLER_0_31_15
*1015 FILLER_0_31_161
*1016 FILLER_0_31_167
*1017 FILLER_0_31_169
*1018 FILLER_0_31_181
*1019 FILLER_0_31_193
*1020 FILLER_0_31_205
*1021 FILLER_0_31_217
*1022 FILLER_0_31_223
*1023 FILLER_0_31_225
*1024 FILLER_0_31_253
*1025 FILLER_0_31_265
*1026 FILLER_0_31_27
*1027 FILLER_0_31_271
*1028 FILLER_0_31_279
*1029 FILLER_0_31_284
*1030 FILLER_0_31_294
*1031 FILLER_0_31_3
*1032 FILLER_0_31_306
*1033 FILLER_0_31_318
*1034 FILLER_0_31_330
*1035 FILLER_0_31_334
*1036 FILLER_0_31_39
*1037 FILLER_0_31_51
*1038 FILLER_0_31_55
*1039 FILLER_0_31_57
*1040 FILLER_0_31_69
*1041 FILLER_0_31_81
*1042 FILLER_0_31_93
*1043 FILLER_0_32_109
*1044 FILLER_0_32_121
*1045 FILLER_0_32_133
*1046 FILLER_0_32_139
*1047 FILLER_0_32_141
*1048 FILLER_0_32_15
*1049 FILLER_0_32_153
*1050 FILLER_0_32_165
*1051 FILLER_0_32_177
*1052 FILLER_0_32_189
*1053 FILLER_0_32_193
*1054 FILLER_0_32_213
*1055 FILLER_0_32_225
*1056 FILLER_0_32_246
*1057 FILLER_0_32_264
*1058 FILLER_0_32_27
*1059 FILLER_0_32_29
*1060 FILLER_0_32_3
*1061 FILLER_0_32_302
*1062 FILLER_0_32_309
*1063 FILLER_0_32_334
*1064 FILLER_0_32_41
*1065 FILLER_0_32_53
*1066 FILLER_0_32_65
*1067 FILLER_0_32_77
*1068 FILLER_0_32_83
*1069 FILLER_0_32_85
*1070 FILLER_0_32_97
*1071 FILLER_0_33_105
*1072 FILLER_0_33_111
*1073 FILLER_0_33_113
*1074 FILLER_0_33_125
*1075 FILLER_0_33_137
*1076 FILLER_0_33_149
*1077 FILLER_0_33_15
*1078 FILLER_0_33_161
*1079 FILLER_0_33_167
*1080 FILLER_0_33_169
*1081 FILLER_0_33_217
*1082 FILLER_0_33_223
*1083 FILLER_0_33_261
*1084 FILLER_0_33_27
*1085 FILLER_0_33_271
*1086 FILLER_0_33_299
*1087 FILLER_0_33_3
*1088 FILLER_0_33_329
*1089 FILLER_0_33_39
*1090 FILLER_0_33_51
*1091 FILLER_0_33_55
*1092 FILLER_0_33_57
*1093 FILLER_0_33_69
*1094 FILLER_0_33_81
*1095 FILLER_0_33_93
*1096 FILLER_0_34_109
*1097 FILLER_0_34_121
*1098 FILLER_0_34_133
*1099 FILLER_0_34_139
*1100 FILLER_0_34_141
*1101 FILLER_0_34_15
*1102 FILLER_0_34_153
*1103 FILLER_0_34_165
*1104 FILLER_0_34_177
*1105 FILLER_0_34_189
*1106 FILLER_0_34_195
*1107 FILLER_0_34_197
*1108 FILLER_0_34_210
*1109 FILLER_0_34_250
*1110 FILLER_0_34_27
*1111 FILLER_0_34_29
*1112 FILLER_0_34_3
*1113 FILLER_0_34_306
*1114 FILLER_0_34_333
*1115 FILLER_0_34_41
*1116 FILLER_0_34_53
*1117 FILLER_0_34_65
*1118 FILLER_0_34_77
*1119 FILLER_0_34_83
*1120 FILLER_0_34_85
*1121 FILLER_0_34_97
*1122 FILLER_0_35_105
*1123 FILLER_0_35_111
*1124 FILLER_0_35_113
*1125 FILLER_0_35_125
*1126 FILLER_0_35_137
*1127 FILLER_0_35_149
*1128 FILLER_0_35_15
*1129 FILLER_0_35_161
*1130 FILLER_0_35_167
*1131 FILLER_0_35_169
*1132 FILLER_0_35_181
*1133 FILLER_0_35_185
*1134 FILLER_0_35_208
*1135 FILLER_0_35_220
*1136 FILLER_0_35_27
*1137 FILLER_0_35_3
*1138 FILLER_0_35_332
*1139 FILLER_0_35_39
*1140 FILLER_0_35_51
*1141 FILLER_0_35_55
*1142 FILLER_0_35_57
*1143 FILLER_0_35_69
*1144 FILLER_0_35_81
*1145 FILLER_0_35_93
*1146 FILLER_0_36_109
*1147 FILLER_0_36_121
*1148 FILLER_0_36_133
*1149 FILLER_0_36_139
*1150 FILLER_0_36_141
*1151 FILLER_0_36_15
*1152 FILLER_0_36_153
*1153 FILLER_0_36_165
*1154 FILLER_0_36_177
*1155 FILLER_0_36_194
*1156 FILLER_0_36_197
*1157 FILLER_0_36_207
*1158 FILLER_0_36_222
*1159 FILLER_0_36_244
*1160 FILLER_0_36_249
*1161 FILLER_0_36_27
*1162 FILLER_0_36_284
*1163 FILLER_0_36_29
*1164 FILLER_0_36_3
*1165 FILLER_0_36_333
*1166 FILLER_0_36_41
*1167 FILLER_0_36_53
*1168 FILLER_0_36_65
*1169 FILLER_0_36_77
*1170 FILLER_0_36_83
*1171 FILLER_0_36_85
*1172 FILLER_0_36_97
*1173 FILLER_0_37_101
*1174 FILLER_0_37_108
*1175 FILLER_0_37_113
*1176 FILLER_0_37_125
*1177 FILLER_0_37_137
*1178 FILLER_0_37_149
*1179 FILLER_0_37_15
*1180 FILLER_0_37_161
*1181 FILLER_0_37_167
*1182 FILLER_0_37_169
*1183 FILLER_0_37_177
*1184 FILLER_0_37_205
*1185 FILLER_0_37_222
*1186 FILLER_0_37_244
*1187 FILLER_0_37_27
*1188 FILLER_0_37_3
*1189 FILLER_0_37_326
*1190 FILLER_0_37_334
*1191 FILLER_0_37_39
*1192 FILLER_0_37_51
*1193 FILLER_0_37_55
*1194 FILLER_0_37_57
*1195 FILLER_0_37_69
*1196 FILLER_0_37_78
*1197 FILLER_0_37_90
*1198 FILLER_0_37_96
*1199 FILLER_0_38_10
*1200 FILLER_0_38_102
*1201 FILLER_0_38_106
*1202 FILLER_0_38_110
*1203 FILLER_0_38_113
*1204 FILLER_0_38_118
*1205 FILLER_0_38_122
*1206 FILLER_0_38_126
*1207 FILLER_0_38_130
*1208 FILLER_0_38_134
*1209 FILLER_0_38_14
*1210 FILLER_0_38_144
*1211 FILLER_0_38_150
*1212 FILLER_0_38_154
*1213 FILLER_0_38_158
*1214 FILLER_0_38_162
*1215 FILLER_0_38_166
*1216 FILLER_0_38_169
*1217 FILLER_0_38_174
*1218 FILLER_0_38_18
*1219 FILLER_0_38_195
*1220 FILLER_0_38_200
*1221 FILLER_0_38_22
*1222 FILLER_0_38_223
*1223 FILLER_0_38_261
*1224 FILLER_0_38_306
*1225 FILLER_0_38_32
*1226 FILLER_0_38_327
*1227 FILLER_0_38_38
*1228 FILLER_0_38_42
*1229 FILLER_0_38_46
*1230 FILLER_0_38_50
*1231 FILLER_0_38_54
*1232 FILLER_0_38_57
*1233 FILLER_0_38_6
*1234 FILLER_0_38_62
*1235 FILLER_0_38_74
*1236 FILLER_0_38_78
*1237 FILLER_0_38_88
*1238 FILLER_0_38_96
*1239 FILLER_0_3_105
*1240 FILLER_0_3_111
*1241 FILLER_0_3_113
*1242 FILLER_0_3_125
*1243 FILLER_0_3_137
*1244 FILLER_0_3_149
*1245 FILLER_0_3_15
*1246 FILLER_0_3_161
*1247 FILLER_0_3_167
*1248 FILLER_0_3_169
*1249 FILLER_0_3_181
*1250 FILLER_0_3_193
*1251 FILLER_0_3_205
*1252 FILLER_0_3_217
*1253 FILLER_0_3_223
*1254 FILLER_0_3_225
*1255 FILLER_0_3_237
*1256 FILLER_0_3_249
*1257 FILLER_0_3_261
*1258 FILLER_0_3_27
*1259 FILLER_0_3_273
*1260 FILLER_0_3_279
*1261 FILLER_0_3_281
*1262 FILLER_0_3_293
*1263 FILLER_0_3_3
*1264 FILLER_0_3_305
*1265 FILLER_0_3_317
*1266 FILLER_0_3_329
*1267 FILLER_0_3_39
*1268 FILLER_0_3_51
*1269 FILLER_0_3_55
*1270 FILLER_0_3_57
*1271 FILLER_0_3_69
*1272 FILLER_0_3_81
*1273 FILLER_0_3_93
*1274 FILLER_0_4_109
*1275 FILLER_0_4_121
*1276 FILLER_0_4_133
*1277 FILLER_0_4_139
*1278 FILLER_0_4_141
*1279 FILLER_0_4_15
*1280 FILLER_0_4_153
*1281 FILLER_0_4_165
*1282 FILLER_0_4_177
*1283 FILLER_0_4_189
*1284 FILLER_0_4_195
*1285 FILLER_0_4_197
*1286 FILLER_0_4_209
*1287 FILLER_0_4_221
*1288 FILLER_0_4_233
*1289 FILLER_0_4_245
*1290 FILLER_0_4_251
*1291 FILLER_0_4_253
*1292 FILLER_0_4_265
*1293 FILLER_0_4_27
*1294 FILLER_0_4_277
*1295 FILLER_0_4_289
*1296 FILLER_0_4_29
*1297 FILLER_0_4_3
*1298 FILLER_0_4_301
*1299 FILLER_0_4_307
*1300 FILLER_0_4_309
*1301 FILLER_0_4_321
*1302 FILLER_0_4_333
*1303 FILLER_0_4_41
*1304 FILLER_0_4_53
*1305 FILLER_0_4_65
*1306 FILLER_0_4_77
*1307 FILLER_0_4_83
*1308 FILLER_0_4_85
*1309 FILLER_0_4_97
*1310 FILLER_0_5_105
*1311 FILLER_0_5_111
*1312 FILLER_0_5_113
*1313 FILLER_0_5_125
*1314 FILLER_0_5_137
*1315 FILLER_0_5_149
*1316 FILLER_0_5_15
*1317 FILLER_0_5_161
*1318 FILLER_0_5_167
*1319 FILLER_0_5_169
*1320 FILLER_0_5_181
*1321 FILLER_0_5_193
*1322 FILLER_0_5_205
*1323 FILLER_0_5_217
*1324 FILLER_0_5_223
*1325 FILLER_0_5_225
*1326 FILLER_0_5_237
*1327 FILLER_0_5_249
*1328 FILLER_0_5_261
*1329 FILLER_0_5_27
*1330 FILLER_0_5_273
*1331 FILLER_0_5_279
*1332 FILLER_0_5_281
*1333 FILLER_0_5_293
*1334 FILLER_0_5_3
*1335 FILLER_0_5_305
*1336 FILLER_0_5_317
*1337 FILLER_0_5_329
*1338 FILLER_0_5_39
*1339 FILLER_0_5_51
*1340 FILLER_0_5_55
*1341 FILLER_0_5_57
*1342 FILLER_0_5_69
*1343 FILLER_0_5_81
*1344 FILLER_0_5_93
*1345 FILLER_0_6_109
*1346 FILLER_0_6_121
*1347 FILLER_0_6_133
*1348 FILLER_0_6_139
*1349 FILLER_0_6_141
*1350 FILLER_0_6_15
*1351 FILLER_0_6_153
*1352 FILLER_0_6_165
*1353 FILLER_0_6_177
*1354 FILLER_0_6_189
*1355 FILLER_0_6_195
*1356 FILLER_0_6_197
*1357 FILLER_0_6_209
*1358 FILLER_0_6_221
*1359 FILLER_0_6_233
*1360 FILLER_0_6_245
*1361 FILLER_0_6_251
*1362 FILLER_0_6_253
*1363 FILLER_0_6_265
*1364 FILLER_0_6_27
*1365 FILLER_0_6_277
*1366 FILLER_0_6_289
*1367 FILLER_0_6_29
*1368 FILLER_0_6_3
*1369 FILLER_0_6_301
*1370 FILLER_0_6_307
*1371 FILLER_0_6_309
*1372 FILLER_0_6_321
*1373 FILLER_0_6_333
*1374 FILLER_0_6_41
*1375 FILLER_0_6_53
*1376 FILLER_0_6_65
*1377 FILLER_0_6_77
*1378 FILLER_0_6_83
*1379 FILLER_0_6_85
*1380 FILLER_0_6_97
*1381 FILLER_0_7_105
*1382 FILLER_0_7_111
*1383 FILLER_0_7_113
*1384 FILLER_0_7_125
*1385 FILLER_0_7_137
*1386 FILLER_0_7_149
*1387 FILLER_0_7_15
*1388 FILLER_0_7_161
*1389 FILLER_0_7_167
*1390 FILLER_0_7_169
*1391 FILLER_0_7_181
*1392 FILLER_0_7_193
*1393 FILLER_0_7_205
*1394 FILLER_0_7_217
*1395 FILLER_0_7_223
*1396 FILLER_0_7_225
*1397 FILLER_0_7_237
*1398 FILLER_0_7_249
*1399 FILLER_0_7_261
*1400 FILLER_0_7_27
*1401 FILLER_0_7_273
*1402 FILLER_0_7_279
*1403 FILLER_0_7_281
*1404 FILLER_0_7_293
*1405 FILLER_0_7_3
*1406 FILLER_0_7_305
*1407 FILLER_0_7_317
*1408 FILLER_0_7_329
*1409 FILLER_0_7_39
*1410 FILLER_0_7_51
*1411 FILLER_0_7_55
*1412 FILLER_0_7_57
*1413 FILLER_0_7_69
*1414 FILLER_0_7_81
*1415 FILLER_0_7_93
*1416 FILLER_0_8_109
*1417 FILLER_0_8_121
*1418 FILLER_0_8_133
*1419 FILLER_0_8_139
*1420 FILLER_0_8_141
*1421 FILLER_0_8_15
*1422 FILLER_0_8_153
*1423 FILLER_0_8_165
*1424 FILLER_0_8_177
*1425 FILLER_0_8_189
*1426 FILLER_0_8_195
*1427 FILLER_0_8_197
*1428 FILLER_0_8_209
*1429 FILLER_0_8_221
*1430 FILLER_0_8_233
*1431 FILLER_0_8_245
*1432 FILLER_0_8_251
*1433 FILLER_0_8_253
*1434 FILLER_0_8_265
*1435 FILLER_0_8_27
*1436 FILLER_0_8_277
*1437 FILLER_0_8_289
*1438 FILLER_0_8_29
*1439 FILLER_0_8_3
*1440 FILLER_0_8_301
*1441 FILLER_0_8_307
*1442 FILLER_0_8_309
*1443 FILLER_0_8_321
*1444 FILLER_0_8_333
*1445 FILLER_0_8_41
*1446 FILLER_0_8_53
*1447 FILLER_0_8_65
*1448 FILLER_0_8_77
*1449 FILLER_0_8_83
*1450 FILLER_0_8_85
*1451 FILLER_0_8_97
*1452 FILLER_0_9_105
*1453 FILLER_0_9_111
*1454 FILLER_0_9_113
*1455 FILLER_0_9_125
*1456 FILLER_0_9_137
*1457 FILLER_0_9_149
*1458 FILLER_0_9_15
*1459 FILLER_0_9_161
*1460 FILLER_0_9_167
*1461 FILLER_0_9_169
*1462 FILLER_0_9_181
*1463 FILLER_0_9_193
*1464 FILLER_0_9_205
*1465 FILLER_0_9_217
*1466 FILLER_0_9_223
*1467 FILLER_0_9_225
*1468 FILLER_0_9_237
*1469 FILLER_0_9_249
*1470 FILLER_0_9_261
*1471 FILLER_0_9_27
*1472 FILLER_0_9_273
*1473 FILLER_0_9_279
*1474 FILLER_0_9_281
*1475 FILLER_0_9_293
*1476 FILLER_0_9_3
*1477 FILLER_0_9_305
*1478 FILLER_0_9_317
*1479 FILLER_0_9_329
*1480 FILLER_0_9_39
*1481 FILLER_0_9_51
*1482 FILLER_0_9_55
*1483 FILLER_0_9_57
*1484 FILLER_0_9_69
*1485 FILLER_0_9_81
*1486 FILLER_0_9_93
*1487 PHY_EDGE_ROW_0_Left_39
*1488 PHY_EDGE_ROW_0_Right_0
*1489 PHY_EDGE_ROW_10_Left_49
*1490 PHY_EDGE_ROW_10_Right_10
*1491 PHY_EDGE_ROW_11_Left_50