*SPEF "ieee 1481-1999"
*DESIGN "tt_um_cmerrill_pdm"
*DATE "14:21:09 Thursday April 18, 2024"
*VENDOR "The OpenROAD Project"
*PROGRAM "OpenROAD"
*VERSION "0889970d1790a2617e69f253221b8bd7626e51dc"
*DESIGN_FLOW "NAME_SCOPE LOCAL" "PIN_CAP NONE"
*DIVIDER /
*DELIMITER :
*BUS_DELIMITER []
*T_UNIT 1 NS
*C_UNIT 1 PF
*R_UNIT 1 OHM
*L_UNIT 1 HENRY

*NAME_MAP
*3 clk
*4 ena
*5 rst_n
*6 ui_in[0]
*7 ui_in[1]
*8 ui_in[2]
*9 ui_in[3]
*10 ui_in[4]
*11 ui_in[5]
*12 ui_in[6]
*13 ui_in[7]
*14 uio_in[0]
*15 uio_in[1]
*16 uio_in[2]
*17 uio_in[3]
*18 uio_in[4]
*19 uio_in[5]
*20 uio_in[6]
*21 uio_in[7]
*22 net20
*23 net21
*24 net22
*25 net23
*26 net24
*27 net25
*28 net26
*29 net27
*30 net28
*31 net29
*32 net30
*33 net31
*34 net32
*35 net33
*36 net34
*37 net35
*38 uo_out[0]
*39 net36
*40 uo_out[2]
*41 uo_out[3]
*42 uo_out[4]
*43 net37
*44 net38
*45 net39
*46 _000_
*47 _001_
*48 _002_
*49 _003_
*50 _004_
*51 _005_
*52 _006_
*53 _007_
*54 _008_
*55 _009_
*56 _010_
*57 _011_
*58 _012_
*59 _013_
*60 _014_
*61 _015_
*62 _016_
*63 _017_
*64 _018_
*65 _019_
*66 _020_
*67 _021_
*68 _022_
*69 _023_
*70 _024_
*71 _025_
*72 _026_
*73 _027_
*74 _028_
*75 _029_
*76 _030_
*77 _031_
*78 _032_
*79 _033_
*80 _034_
*81 _035_
*82 _036_
*83 _037_
*84 _038_
*85 _039_
*86 _040_
*87 _041_
*88 _042_
*89 _043_
*90 _044_
*91 _045_
*92 _046_
*93 _047_
*94 _048_
*95 _049_
*96 _050_
*97 _051_
*98 _052_
*99 _053_
*100 _054_
*101 _055_
*102 _056_
*103 _057_
*104 _058_
*105 _059_
*106 _060_
*107 _061_
*108 _062_
*109 _063_
*110 _064_
*111 _065_
*112 _066_
*113 _067_
*114 _068_
*115 _069_
*116 _070_
*117 _071_
*118 _072_
*119 _073_
*120 _074_
*121 _075_
*122 _076_
*123 _077_
*124 _078_
*125 _079_
*126 _080_
*127 _081_
*128 _082_
*129 _083_
*130 _084_
*131 _085_
*132 _086_
*133 _087_
*134 _088_
*135 _089_
*136 _090_
*137 _091_
*138 _092_
*139 _093_
*140 _094_
*141 _095_
*142 _096_
*143 _097_
*144 _098_
*145 _099_
*146 _100_
*147 _101_
*148 _102_
*149 _103_
*150 _104_
*151 _105_
*152 _106_
*153 _107_
*154 _108_
*155 _109_
*156 _110_
*157 _111_
*158 _112_
*159 _113_
*160 _114_
*161 _115_
*162 _116_
*163 _117_
*164 _118_
*165 _119_
*166 _120_
*167 _121_
*168 _122_
*169 _123_
*170 _124_
*171 _125_
*172 _126_
*173 _127_
*174 _128_
*175 _129_
*176 _130_
*177 _131_
*178 _132_
*179 _133_
*180 _134_
*181 _135_
*182 _136_
*183 _137_
*184 _138_
*185 _139_
*186 _140_
*187 _141_
*188 _142_
*189 _143_
*190 _144_
*191 _145_
*192 _146_
*193 _147_
*194 _148_
*195 _149_
*196 _150_
*197 _151_
*198 _152_
*199 _153_
*200 _154_
*201 _155_
*202 _156_
*203 _157_
*204 _158_
*205 _159_
*206 _160_
*207 _161_
*208 _162_
*209 _163_
*210 _164_
*211 _165_
*212 _166_
*213 _167_
*214 _168_
*215 _169_
*216 _170_
*217 _171_
*218 _172_
*219 _173_
*220 _174_
*221 _175_
*222 _176_
*223 _177_
*224 _178_
*225 _179_
*226 _180_
*227 _181_
*228 _182_
*229 _183_
*230 _184_
*231 _185_
*232 _186_
*233 _187_
*234 _188_
*235 _189_
*236 _190_
*237 _191_
*238 _192_
*239 _193_
*240 _194_
*241 _195_
*242 _196_
*243 _197_
*244 _198_
*245 _199_
*246 _200_
*247 _201_
*248 _202_
*249 _203_
*250 _204_
*251 _205_
*252 _206_
*253 _207_
*254 _208_
*255 _209_
*256 _210_
*257 _211_
*258 _212_
*259 _213_
*260 _214_
*261 _215_
*262 _216_
*263 _217_
*264 _218_
*265 _219_
*266 _220_
*267 _221_
*268 _222_
*269 _223_
*270 _224_
*271 _225_
*272 _226_
*273 _227_
*274 _228_
*275 _229_
*276 _230_
*277 _231_
*278 _232_
*279 _233_
*280 _234_
*281 _235_
*282 _236_
*283 _237_
*284 _238_
*285 _239_
*286 _240_
*287 _241_
*288 _242_
*289 _243_
*290 _244_
*291 _245_
*292 _246_
*293 _247_
*294 _248_
*295 _249_
*296 _250_
*297 _251_
*298 _252_
*299 _253_
*300 _254_
*301 _255_
*302 _256_
*303 _257_
*304 _258_
*305 _259_
*306 _260_
*307 _261_
*308 _262_
*309 _263_
*310 _264_
*311 _265_
*312 _266_
*313 _267_
*314 _268_
*315 _269_
*316 _270_
*317 _271_
*318 _272_
*319 _273_
*320 _274_
*321 _275_
*322 _276_
*323 _277_
*324 _278_
*325 _279_
*326 _280_
*327 _281_
*328 _282_
*329 _283_
*330 _284_
*331 _285_
*332 _286_
*333 _287_
*334 _288_
*335 _289_
*336 _290_
*337 _291_
*338 _292_
*339 _293_
*340 _294_
*341 _295_
*342 _296_
*343 _297_
*344 _298_
*345 _299_
*346 _300_
*347 _301_
*348 _302_
*349 _303_
*350 _304_
*351 _305_
*352 _306_
*353 _307_
*354 _308_
*355 _309_
*356 _310_
*357 _311_
*358 _312_
*359 _313_
*360 _314_
*361 _315_
*362 _316_
*363 _317_
*364 _318_
*365 _319_
*366 _320_
*367 _321_
*368 _322_
*369 _323_
*370 _324_
*371 _325_
*372 _326_
*373 _327_
*374 _328_
*375 _329_
*376 _330_
*377 _331_
*378 _332_
*379 _333_
*380 _334_
*381 _335_
*382 _336_
*383 _337_
*384 _338_
*385 _339_
*386 _340_
*387 _341_
*388 _342_
*389 _343_
*390 _344_
*391 _345_
*392 _346_
*393 _347_
*394 _348_
*395 _349_
*396 _350_
*397 _351_
*398 _352_
*399 _353_
*400 _354_
*401 _355_
*402 _356_
*403 _357_
*404 _358_
*405 _359_
*406 _360_
*407 _361_
*408 _362_
*409 _363_
*410 _364_
*411 _365_
*412 clknet_0_clk
*413 clknet_3_0__leaf_clk
*414 clknet_3_1__leaf_clk
*415 clknet_3_2__leaf_clk
*416 clknet_3_3__leaf_clk
*417 clknet_3_4__leaf_clk
*418 clknet_3_5__leaf_clk
*419 clknet_3_6__leaf_clk
*420 clknet_3_7__leaf_clk
*421 clock_div_counter\[0\]
*422 clock_div_counter\[1\]
*423 clock_div_counter\[2\]
*424 clock_div_counter\[3\]
*425 cs_edge_detect\.input_buf
*426 net1
*427 net10
*428 net11
*429 net12
*430 net13
*431 net14
*432 net15
*433 net16
*434 net17
*435 net18
*436 net19
*437 net2
*438 net3
*439 net4
*440 net40
*441 net41
*442 net42
*443 net43
*444 net44
*445 net45
*446 net46
*447 net47
*448 net48
*449 net49
*450 net5
*451 net50
*452 net51
*453 net52
*454 net53
*455 net54
*456 net55
*457 net56
*458 net57
*459 net58
*460 net59
*461 net6
*462 net60
*463 net61
*464 net62
*465 net63
*466 net64
*467 net65
*468 net66
*469 net67
*470 net68
*471 net69
*472 net7
*473 net70
*474 net71
*475 net72
*476 net73
*477 net74
*478 net75
*479 net76
*480 net77
*481 net78
*482 net79
*483 net8
*484 net80
*485 net81
*486 net82
*487 net83
*488 net84
*489 net85
*490 net86
*491 net87
*492 net88
*493 net9
*494 pdm\.data_in\[0\]
*495 pdm\.data_in\[1\]
*496 pdm\.data_in\[2\]
*497 pdm\.data_in\[3\]
*498 pdm\.data_in\[4\]
*499 pdm\.data_in\[5\]
*500 pdm\.data_in\[6\]
*501 pdm\.divided_clock_pulse
*502 pdm\.error\[0\]
*503 pdm\.error\[1\]
*504 pdm\.error\[2\]
*505 pdm\.error\[3\]
*506 pdm\.error\[4\]
*507 pdm\.error\[5\]
*508 pdm\.error\[6\]
*509 pdm\.error\[7\]
*510 pdm\.error\[8\]
*511 pdm\.pdm_out
*512 pfm1\.data_in\[7\]
*513 pfm1\.pfm_counter\[0\]
*514 pfm1\.pfm_counter\[1\]
*515 pfm1\.pfm_counter\[2\]
*516 pfm1\.pfm_counter\[3\]
*517 pfm1\.pfm_counter\[4\]
*518 pfm1\.pfm_counter\[5\]
*519 pfm1\.pfm_counter\[6\]
*520 pfm1\.pfm_counter\[7\]
*521 pfm1\.pfm_counter\[8\]
*522 pfm1\.pfm_out
*523 pfm2\.pfm2_counter\[0\]
*524 pfm2\.pfm2_counter\[1\]
*525 pfm2\.pfm2_counter\[2\]
*526 pfm2\.pfm2_counter\[3\]
*527 pfm2\.pfm2_counter\[4\]
*528 pfm2\.pfm2_counter\[5\]
*529 pfm2\.pfm2_counter\[6\]
*530 pfm2\.pfm2_counter\[7\]
*531 pfm2\.pfm2_counter\[8\]
*532 pfm2\.pfm_out
*533 pwm\.data_buffer\[0\]
*534 pwm\.data_buffer\[1\]
*535 pwm\.data_buffer\[2\]
*536 pwm\.data_buffer\[3\]
*537 pwm\.data_buffer\[4\]
*538 pwm\.data_buffer\[5\]
*539 pwm\.data_buffer\[6\]
*540 pwm\.data_buffer\[7\]
*541 pwm\.pwm_counter\[0\]
*542 pwm\.pwm_counter\[1\]
*543 pwm\.pwm_counter\[2\]
*544 pwm\.pwm_counter\[3\]
*545 pwm\.pwm_counter\[4\]
*546 pwm\.pwm_counter\[5\]
*547 pwm\.pwm_counter\[6\]
*548 pwm\.pwm_counter\[7\]
*549 pwm\.pwm_out
*550 spi\.spi_cs_cdc\.stage0
*551 spi\.spi_cs_cdc\.stage1
*552 spi\.spi_data_cdc\.stage0\[0\]
*553 spi\.spi_data_cdc\.stage0\[1\]
*554 spi\.spi_data_cdc\.stage0\[2\]
*555 spi\.spi_data_cdc\.stage0\[3\]
*556 spi\.spi_data_cdc\.stage0\[4\]
*557 spi\.spi_data_cdc\.stage0\[5\]
*558 spi\.spi_data_cdc\.stage0\[6\]
*559 spi\.spi_data_cdc\.stage0\[7\]
*560 spi\.spi_data_cdc\.stage1\[0\]
*561 spi\.spi_data_cdc\.stage1\[1\]
*562 spi\.spi_data_cdc\.stage1\[2\]
*563 spi\.spi_data_cdc\.stage1\[3\]
*564 spi\.spi_data_cdc\.stage1\[4\]
*565 spi\.spi_data_cdc\.stage1\[5\]
*566 spi\.spi_data_cdc\.stage1\[6\]
*567 spi\.spi_data_cdc\.stage1\[7\]
*568 spi\.spi_data_cdc_spi_data_live\[0\]
*569 spi\.spi_data_cdc_spi_data_live\[1\]
*570 spi\.spi_data_cdc_spi_data_live\[2\]
*571 spi\.spi_data_cdc_spi_data_live\[3\]
*572 spi\.spi_data_cdc_spi_data_live\[4\]
*573 spi\.spi_data_cdc_spi_data_live\[5\]
*574 spi\.spi_data_cdc_spi_data_live\[6\]
*575 spi\.spi_data_cdc_spi_data_live\[7\]
*576 FILLER_0_0_109
*577 FILLER_0_0_113
*578 FILLER_0_0_125
*579 FILLER_0_0_137
*580 FILLER_0_0_141
*581 FILLER_0_0_15
*582 FILLER_0_0_153
*583 FILLER_0_0_165
*584 FILLER_0_0_169
*585 FILLER_0_0_181
*586 FILLER_0_0_193
*587 FILLER_0_0_197
*588 FILLER_0_0_209
*589 FILLER_0_0_221
*590 FILLER_0_0_225
*591 FILLER_0_0_237
*592 FILLER_0_0_249
*593 FILLER_0_0_253
*594 FILLER_0_0_265
*595 FILLER_0_0_27
*596 FILLER_0_0_277
*597 FILLER_0_0_281
*598 FILLER_0_0_29
*599 FILLER_0_0_293
*600 FILLER_0_0_3
*601 FILLER_0_0_305
*602 FILLER_0_0_309
*603 FILLER_0_0_321
*604 FILLER_0_0_333
*605 FILLER_0_0_41
*606 FILLER_0_0_53
*607 FILLER_0_0_57
*608 FILLER_0_0_69
*609 FILLER_0_0_81
*610 FILLER_0_0_85
*611 FILLER_0_0_97
*612 FILLER_0_10_109
*613 FILLER_0_10_121
*614 FILLER_0_10_133
*615 FILLER_0_10_139
*616 FILLER_0_10_141
*617 FILLER_0_10_15
*618 FILLER_0_10_153
*619 FILLER_0_10_165
*620 FILLER_0_10_177
*621 FILLER_0_10_189
*622 FILLER_0_10_195
*623 FILLER_0_10_197
*624 FILLER_0_10_209
*625 FILLER_0_10_221
*626 FILLER_0_10_233
*627 FILLER_0_10_245
*628 FILLER_0_10_251
*629 FILLER_0_10_253
*630 FILLER_0_10_265
*631 FILLER_0_10_27
*632 FILLER_0_10_277
*633 FILLER_0_10_289
*634 FILLER_0_10_29
*635 FILLER_0_10_3
*636 FILLER_0_10_301
*637 FILLER_0_10_307
*638 FILLER_0_10_309
*639 FILLER_0_10_321
*640 FILLER_0_10_333
*641 FILLER_0_10_41
*642 FILLER_0_10_53
*643 FILLER_0_10_65
*644 FILLER_0_10_77
*645 FILLER_0_10_83
*646 FILLER_0_10_85
*647 FILLER_0_10_97
*648 FILLER_0_11_105
*649 FILLER_0_11_111
*650 FILLER_0_11_113
*651 FILLER_0_11_125
*652 FILLER_0_11_137
*653 FILLER_0_11_149
*654 FILLER_0_11_15
*655 FILLER_0_11_161
*656 FILLER_0_11_167
*657 FILLER_0_11_169
*658 FILLER_0_11_181
*659 FILLER_0_11_193
*660 FILLER_0_11_205
*661 FILLER_0_11_217
*662 FILLER_0_11_223
*663 FILLER_0_11_225
*664 FILLER_0_11_237
*665 FILLER_0_11_249
*666 FILLER_0_11_261
*667 FILLER_0_11_27
*668 FILLER_0_11_273
*669 FILLER_0_11_279
*670 FILLER_0_11_281
*671 FILLER_0_11_293
*672 FILLER_0_11_3
*673 FILLER_0_11_305
*674 FILLER_0_11_317
*675 FILLER_0_11_329
*676 FILLER_0_11_39
*677 FILLER_0_11_51
*678 FILLER_0_11_55
*679 FILLER_0_11_57
*680 FILLER_0_11_69
*681 FILLER_0_11_81
*682 FILLER_0_11_93
*683 FILLER_0_12_109
*684 FILLER_0_12_121
*685 FILLER_0_12_133
*686 FILLER_0_12_139
*687 FILLER_0_12_141
*688 FILLER_0_12_15
*689 FILLER_0_12_153
*690 FILLER_0_12_165
*691 FILLER_0_12_177
*692 FILLER_0_12_189
*693 FILLER_0_12_195
*694 FILLER_0_12_197
*695 FILLER_0_12_209
*696 FILLER_0_12_221
*697 FILLER_0_12_233
*698 FILLER_0_12_245
*699 FILLER_0_12_251
*700 FILLER_0_12_253
*701 FILLER_0_12_265
*702 FILLER_0_12_27
*703 FILLER_0_12_277
*704 FILLER_0_12_289
*705 FILLER_0_12_29
*706 FILLER_0_12_3
*707 FILLER_0_12_301
*708 FILLER_0_12_307
*709 FILLER_0_12_309
*710 FILLER_0_12_321
*711 FILLER_0_12_333
*712 FILLER_0_12_41
*713 FILLER_0_12_53
*714 FILLER_0_12_65
*715 FILLER_0_12_77
*716 FILLER_0_12_83
*717 FILLER_0_12_85
*718 FILLER_0_12_97
*719 FILLER_0_13_105
*720 FILLER_0_13_111
*721 FILLER_0_13_113
*722 FILLER_0_13_125
*723 FILLER_0_13_137
*724 FILLER_0_13_149
*725 FILLER_0_13_15
*726 FILLER_0_13_161
*727 FILLER_0_13_167
*728 FILLER_0_13_169
*729 FILLER_0_13_181
*730 FILLER_0_13_193
*731 FILLER_0_13_205
*732 FILLER_0_13_217
*733 FILLER_0_13_223
*734 FILLER_0_13_225
*735 FILLER_0_13_237
*736 FILLER_0_13_249
*737 FILLER_0_13_261
*738 FILLER_0_13_27
*739 FILLER_0_13_273
*740 FILLER_0_13_279
*741 FILLER_0_13_281
*742 FILLER_0_13_293
*743 FILLER_0_13_3
*744 FILLER_0_13_305
*745 FILLER_0_13_317
*746 FILLER_0_13_329
*747 FILLER_0_13_39
*748 FILLER_0_13_51
*749 FILLER_0_13_55
*750 FILLER_0_13_57
*751 FILLER_0_13_69
*752 FILLER_0_13_81
*753 FILLER_0_13_93
*754 FILLER_0_14_109
*755 FILLER_0_14_119
*756 FILLER_0_14_127
*757 FILLER_0_14_133
*758 FILLER_0_14_139
*759 FILLER_0_14_141
*760 FILLER_0_14_15
*761 FILLER_0_14_153
*762 FILLER_0_14_165
*763 FILLER_0_14_177
*764 FILLER_0_14_189
*765 FILLER_0_14_195
*766 FILLER_0_14_197
*767 FILLER_0_14_209
*768 FILLER_0_14_221
*769 FILLER_0_14_233
*770 FILLER_0_14_245
*771 FILLER_0_14_251
*772 FILLER_0_14_253
*773 FILLER_0_14_265
*774 FILLER_0_14_27
*775 FILLER_0_14_277
*776 FILLER_0_14_289
*777 FILLER_0_14_29
*778 FILLER_0_14_3
*779 FILLER_0_14_301
*780 FILLER_0_14_307
*781 FILLER_0_14_309
*782 FILLER_0_14_321
*783 FILLER_0_14_333
*784 FILLER_0_14_41
*785 FILLER_0_14_53
*786 FILLER_0_14_65
*787 FILLER_0_14_77
*788 FILLER_0_14_83
*789 FILLER_0_14_85
*790 FILLER_0_14_97
*791 FILLER_0_15_103
*792 FILLER_0_15_111
*793 FILLER_0_15_138
*794 FILLER_0_15_15
*795 FILLER_0_15_150
*796 FILLER_0_15_162
*797 FILLER_0_15_169
*798 FILLER_0_15_181
*799 FILLER_0_15_193
*800 FILLER_0_15_205
*801 FILLER_0_15_217
*802 FILLER_0_15_223
*803 FILLER_0_15_225
*804 FILLER_0_15_237
*805 FILLER_0_15_249
*806 FILLER_0_15_261
*807 FILLER_0_15_27
*808 FILLER_0_15_273
*809 FILLER_0_15_279
*810 FILLER_0_15_281
*811 FILLER_0_15_293
*812 FILLER_0_15_3
*813 FILLER_0_15_305
*814 FILLER_0_15_317
*815 FILLER_0_15_329
*816 FILLER_0_15_39
*817 FILLER_0_15_51
*818 FILLER_0_15_55
*819 FILLER_0_15_57
*820 FILLER_0_15_69
*821 FILLER_0_15_91
*822 FILLER_0_16_109
*823 FILLER_0_16_126
*824 FILLER_0_16_141
*825 FILLER_0_16_15
*826 FILLER_0_16_152
*827 FILLER_0_16_164
*828 FILLER_0_16_187
*829 FILLER_0_16_195
*830 FILLER_0_16_197
*831 FILLER_0_16_220
*832 FILLER_0_16_232
*833 FILLER_0_16_244
*834 FILLER_0_16_253
*835 FILLER_0_16_265
*836 FILLER_0_16_27
*837 FILLER_0_16_277
*838 FILLER_0_16_289
*839 FILLER_0_16_29
*840 FILLER_0_16_3
*841 FILLER_0_16_301
*842 FILLER_0_16_307
*843 FILLER_0_16_309
*844 FILLER_0_16_321
*845 FILLER_0_16_333
*846 FILLER_0_16_41
*847 FILLER_0_16_49
*848 FILLER_0_16_56
*849 FILLER_0_16_60
*850 FILLER_0_16_68
*851 FILLER_0_16_80
*852 FILLER_0_16_85
*853 FILLER_0_16_91
*854 FILLER_0_16_95
*855 FILLER_0_17_122
*856 FILLER_0_17_141
*857 FILLER_0_17_15
*858 FILLER_0_17_161
*859 FILLER_0_17_191
*860 FILLER_0_17_198
*861 FILLER_0_17_222
*862 FILLER_0_17_231
*863 FILLER_0_17_243
*864 FILLER_0_17_255
*865 FILLER_0_17_267
*866 FILLER_0_17_27
*867 FILLER_0_17_279
*868 FILLER_0_17_281
*869 FILLER_0_17_293
*870 FILLER_0_17_3
*871 FILLER_0_17_305
*872 FILLER_0_17_317
*873 FILLER_0_17_329
*874 FILLER_0_17_35
*875 FILLER_0_17_55
*876 FILLER_0_17_71
*877 FILLER_0_17_77
*878 FILLER_0_17_86
*879 FILLER_0_18_106
*880 FILLER_0_18_115
*881 FILLER_0_18_127
*882 FILLER_0_18_139
*883 FILLER_0_18_15
*884 FILLER_0_18_160
*885 FILLER_0_18_172
*886 FILLER_0_18_195
*887 FILLER_0_18_197
*888 FILLER_0_18_204
*889 FILLER_0_18_246
*890 FILLER_0_18_253
*891 FILLER_0_18_265
*892 FILLER_0_18_27
*893 FILLER_0_18_277
*894 FILLER_0_18_289
*895 FILLER_0_18_3
*896 FILLER_0_18_301
*897 FILLER_0_18_307
*898 FILLER_0_18_309
*899 FILLER_0_18_321
*900 FILLER_0_18_333
*901 FILLER_0_18_65
*902 FILLER_0_18_73
*903 FILLER_0_18_77
*904 FILLER_0_18_85
*905 FILLER_0_19_102
*906 FILLER_0_19_110
*907 FILLER_0_19_113
*908 FILLER_0_19_121
*909 FILLER_0_19_126
*910 FILLER_0_19_138
*911 FILLER_0_19_15
*912 FILLER_0_19_150
*913 FILLER_0_19_162
*914 FILLER_0_19_169
*915 FILLER_0_19_222
*916 FILLER_0_19_225
*917 FILLER_0_19_237
*918 FILLER_0_19_249
*919 FILLER_0_19_27
*920 FILLER_0_19_277
*921 FILLER_0_19_281
*922 FILLER_0_19_293
*923 FILLER_0_19_298
*924 FILLER_0_19_3
*925 FILLER_0_19_310
*926 FILLER_0_19_322
*927 FILLER_0_19_334
*928 FILLER_0_19_39
*929 FILLER_0_19_47
*930 FILLER_0_19_55
*931 FILLER_0_19_57
*932 FILLER_0_19_71
*933 FILLER_0_19_81
*934 FILLER_0_19_93
*935 FILLER_0_1_105
*936 FILLER_0_1_111
*937 FILLER_0_1_113
*938 FILLER_0_1_125
*939 FILLER_0_1_137
*940 FILLER_0_1_149
*941 FILLER_0_1_15
*942 FILLER_0_1_161
*943 FILLER_0_1_167
*944 FILLER_0_1_169
*945 FILLER_0_1_181
*946 FILLER_0_1_193
*947 FILLER_0_1_205
*948 FILLER_0_1_217
*949 FILLER_0_1_223
*950 FILLER_0_1_225
*951 FILLER_0_1_237
*952 FILLER_0_1_249
*953 FILLER_0_1_261
*954 FILLER_0_1_27
*955 FILLER_0_1_273
*956 FILLER_0_1_279
*957 FILLER_0_1_281
*958 FILLER_0_1_293
*959 FILLER_0_1_3
*960 FILLER_0_1_305
*961 FILLER_0_1_317
*962 FILLER_0_1_329
*963 FILLER_0_1_39
*964 FILLER_0_1_51
*965 FILLER_0_1_55
*966 FILLER_0_1_57
*967 FILLER_0_1_69
*968 FILLER_0_1_81
*969 FILLER_0_1_93
*970 FILLER_0_20_104
*971 FILLER_0_20_116
*972 FILLER_0_20_135
*973 FILLER_0_20_139
*974 FILLER_0_20_141
*975 FILLER_0_20_15
*976 FILLER_0_20_150
*977 FILLER_0_20_162
*978 FILLER_0_20_174
*979 FILLER_0_20_178
*980 FILLER_0_20_185
*981 FILLER_0_20_197
*982 FILLER_0_20_210
*983 FILLER_0_20_219
*984 FILLER_0_20_231
*985 FILLER_0_20_243
*986 FILLER_0_20_27
*987 FILLER_0_20_277
*988 FILLER_0_20_284
*989 FILLER_0_20_29
*990 FILLER_0_20_3
*991 FILLER_0_20_301
*992 FILLER_0_20_307
*993 FILLER_0_20_309
*994 FILLER_0_20_327
*995 FILLER_0_20_41
*996 FILLER_0_20_53
*997 FILLER_0_20_65
*998 FILLER_0_20_77
*999 FILLER_0_20_83
*1000 FILLER_0_20_90
*1001 FILLER_0_20_96
*1002 FILLER_0_21_109
*1003 FILLER_0_21_113
*1004 FILLER_0_21_119
*1005 FILLER_0_21_15
*1006 FILLER_0_21_169
*1007 FILLER_0_21_181
*1008 FILLER_0_21_197
*1009 FILLER_0_21_213
*1010 FILLER_0_21_225
*1011 FILLER_0_21_237
*1012 FILLER_0_21_269
*1013 FILLER_0_21_27
*1014 FILLER_0_21_278
*1015 FILLER_0_21_281
*1016 FILLER_0_21_3
*1017 FILLER_0_21_39
*1018 FILLER_0_21_69
*1019 FILLER_0_21_80
*1020 FILLER_0_22_121
*1021 FILLER_0_22_139
*1022 FILLER_0_22_141
*1023 FILLER_0_22_145
*1024 FILLER_0_22_15
*1025 FILLER_0_22_174
*1026 FILLER_0_22_207
*1027 FILLER_0_22_224
*1028 FILLER_0_22_230
*1029 FILLER_0_22_251
*1030 FILLER_0_22_27
*1031 FILLER_0_22_279
*1032 FILLER_0_22_289
*1033 FILLER_0_22_3
*1034 FILLER_0_22_301
*1035 FILLER_0_22_307
*1036 FILLER_0_22_332
*1037 FILLER_0_22_77
*1038 FILLER_0_22_83
*1039 FILLER_0_22_92
*1040 FILLER_0_22_96
*1041 FILLER_0_23_108
*1042 FILLER_0_23_113
*1043 FILLER_0_23_125
*1044 FILLER_0_23_15
*1045 FILLER_0_23_169
*1046 FILLER_0_23_181
*1047 FILLER_0_23_193
*1048 FILLER_0_23_225
*1049 FILLER_0_23_251
*1050 FILLER_0_23_27
*1051 FILLER_0_23_272
*1052 FILLER_0_23_281
*1053 FILLER_0_23_293
*1054 FILLER_0_23_3
*1055 FILLER_0_23_329
*1056 FILLER_0_23_35
*1057 FILLER_0_23_44
*1058 FILLER_0_23_57
*1059 FILLER_0_23_65
*1060 FILLER_0_23_72
*1061 FILLER_0_23_76
*1062 FILLER_0_24_100
*1063 FILLER_0_24_112
*1064 FILLER_0_24_120
*1065 FILLER_0_24_129
*1066 FILLER_0_24_138
*1067 FILLER_0_24_141
*1068 FILLER_0_24_149
*1069 FILLER_0_24_15
*1070 FILLER_0_24_158
*1071 FILLER_0_24_162
*1072 FILLER_0_24_169
*1073 FILLER_0_24_181
*1074 FILLER_0_24_189
*1075 FILLER_0_24_197
*1076 FILLER_0_24_225
*1077 FILLER_0_24_237
*1078 FILLER_0_24_249
*1079 FILLER_0_24_253
*1080 FILLER_0_24_257
*1081 FILLER_0_24_262
*1082 FILLER_0_24_267
*1083 FILLER_0_24_27
*1084 FILLER_0_24_29
*1085 FILLER_0_24_3
*1086 FILLER_0_24_317
*1087 FILLER_0_24_329
*1088 FILLER_0_24_37
*1089 FILLER_0_24_57
*1090 FILLER_0_24_65
*1091 FILLER_0_24_83
*1092 FILLER_0_25_103
*1093 FILLER_0_25_111
*1094 FILLER_0_25_113
*1095 FILLER_0_25_119
*1096 FILLER_0_25_136
*1097 FILLER_0_25_148
*1098 FILLER_0_25_15
*1099 FILLER_0_25_169
*1100 FILLER_0_25_190
*1101 FILLER_0_25_198
*1102 FILLER_0_25_225
*1103 FILLER_0_25_237
*1104 FILLER_0_25_253
*1105 FILLER_0_25_257
*1106 FILLER_0_25_263
*1107 FILLER_0_25_27
*1108 FILLER_0_25_275
*1109 FILLER_0_25_279
*1110 FILLER_0_25_3
*1111 FILLER_0_25_301
*1112 FILLER_0_25_305
*1113 FILLER_0_25_326
*1114 FILLER_0_25_334
*1115 FILLER_0_25_39
*1116 FILLER_0_25_51
*1117 FILLER_0_25_55
*1118 FILLER_0_25_62
*1119 FILLER_0_25_74
*1120 FILLER_0_25_84
*1121 FILLER_0_25_91
*1122 FILLER_0_26_102
*1123 FILLER_0_26_138
*1124 FILLER_0_26_144
*1125 FILLER_0_26_15
*1126 FILLER_0_26_156
*1127 FILLER_0_26_192
*1128 FILLER_0_26_228
*1129 FILLER_0_26_234
*1130 FILLER_0_26_27
*1131 FILLER_0_26_270
*1132 FILLER_0_26_29
*1133 FILLER_0_26_3
*1134 FILLER_0_26_309
*1135 FILLER_0_26_331
*1136 FILLER_0_26_56
*1137 FILLER_0_26_65
*1138 FILLER_0_26_82
*1139 FILLER_0_26_85
*1140 FILLER_0_27_113
*1141 FILLER_0_27_136
*1142 FILLER_0_27_15
*1143 FILLER_0_27_150
*1144 FILLER_0_27_164
*1145 FILLER_0_27_178
*1146 FILLER_0_27_223
*1147 FILLER_0_27_225
*1148 FILLER_0_27_233
*1149 FILLER_0_27_237
*1150 FILLER_0_27_27
*1151 FILLER_0_27_279
*1152 FILLER_0_27_289
*1153 FILLER_0_27_3
*1154 FILLER_0_27_326
*1155 FILLER_0_27_334
*1156 FILLER_0_27_70
*1157 FILLER_0_28_101
*1158 FILLER_0_28_118
*1159 FILLER_0_28_138
*1160 FILLER_0_28_141
*1161 FILLER_0_28_15
*1162 FILLER_0_28_153
*1163 FILLER_0_28_157
*1164 FILLER_0_28_174
*1165 FILLER_0_28_194
*1166 FILLER_0_28_200
*1167 FILLER_0_28_204
*1168 FILLER_0_28_213
*1169 FILLER_0_28_233
*1170 FILLER_0_28_245
*1171 FILLER_0_28_251
*1172 FILLER_0_28_261
*1173 FILLER_0_28_27
*1174 FILLER_0_28_273
*1175 FILLER_0_28_280
*1176 FILLER_0_28_29
*1177 FILLER_0_28_3
*1178 FILLER_0_28_305
*1179 FILLER_0_28_309
*1180 FILLER_0_28_321
*1181 FILLER_0_28_333
*1182 FILLER_0_28_46
*1183 FILLER_0_28_65
*1184 FILLER_0_28_73
*1185 FILLER_0_28_83
*1186 FILLER_0_29_103
*1187 FILLER_0_29_144
*1188 FILLER_0_29_15
*1189 FILLER_0_29_156
*1190 FILLER_0_29_175
*1191 FILLER_0_29_187
*1192 FILLER_0_29_199
*1193 FILLER_0_29_211
*1194 FILLER_0_29_223
*1195 FILLER_0_29_225
*1196 FILLER_0_29_237
*1197 FILLER_0_29_249
*1198 FILLER_0_29_261
*1199 FILLER_0_29_269
*1200 FILLER_0_29_27
*1201 FILLER_0_29_277
*1202 FILLER_0_29_296
*1203 FILLER_0_29_3
*1204 FILLER_0_29_308
*1205 FILLER_0_29_312
*1206 FILLER_0_29_33
*1207 FILLER_0_29_330
*1208 FILLER_0_29_334
*1209 FILLER_0_29_42
*1210 FILLER_0_29_46
*1211 FILLER_0_29_55
*1212 FILLER_0_29_66
*1213 FILLER_0_2_109
*1214 FILLER_0_2_121
*1215 FILLER_0_2_133
*1216 FILLER_0_2_139
*1217 FILLER_0_2_141
*1218 FILLER_0_2_15
*1219 FILLER_0_2_153
*1220 FILLER_0_2_165
*1221 FILLER_0_2_177
*1222 FILLER_0_2_189
*1223 FILLER_0_2_195
*1224 FILLER_0_2_197
*1225 FILLER_0_2_209
*1226 FILLER_0_2_221
*1227 FILLER_0_2_233
*1228 FILLER_0_2_245
*1229 FILLER_0_2_251
*1230 FILLER_0_2_253
*1231 FILLER_0_2_265
*1232 FILLER_0_2_27
*1233 FILLER_0_2_277
*1234 FILLER_0_2_289
*1235 FILLER_0_2_29
*1236 FILLER_0_2_3
*1237 FILLER_0_2_301
*1238 FILLER_0_2_307
*1239 FILLER_0_2_309
*1240 FILLER_0_2_321
*1241 FILLER_0_2_333
*1242 FILLER_0_2_41
*1243 FILLER_0_2_53
*1244 FILLER_0_2_65
*1245 FILLER_0_2_77
*1246 FILLER_0_2_83
*1247 FILLER_0_2_85
*1248 FILLER_0_2_97
*1249 FILLER_0_30_104
*1250 FILLER_0_30_141
*1251 FILLER_0_30_147
*1252 FILLER_0_30_15
*1253 FILLER_0_30_157
*1254 FILLER_0_30_166
*1255 FILLER_0_30_178
*1256 FILLER_0_30_182
*1257 FILLER_0_30_213
*1258 FILLER_0_30_230
*1259 FILLER_0_30_27
*1260 FILLER_0_30_272
*1261 FILLER_0_30_279
*1262 FILLER_0_30_29
*1263 FILLER_0_30_291
*1264 FILLER_0_30_295
*1265 FILLER_0_30_3
*1266 FILLER_0_30_307
*1267 FILLER_0_30_333
*1268 FILLER_0_30_56
*1269 FILLER_0_30_66
*1270 FILLER_0_30_82
*1271 FILLER_0_30_92
*1272 FILLER_0_30_96
*1273 FILLER_0_31_103
*1274 FILLER_0_31_113
*1275 FILLER_0_31_131
*1276 FILLER_0_31_15
*1277 FILLER_0_31_165
*1278 FILLER_0_31_169
*1279 FILLER_0_31_214
*1280 FILLER_0_31_223
*1281 FILLER_0_31_23
*1282 FILLER_0_31_275
*1283 FILLER_0_31_279
*1284 FILLER_0_31_297
*1285 FILLER_0_31_3
*1286 FILLER_0_31_330
*1287 FILLER_0_31_334
*1288 FILLER_0_31_55
*1289 FILLER_0_31_57
*1290 FILLER_0_31_91
*1291 FILLER_0_32_135
*1292 FILLER_0_32_15
*1293 FILLER_0_32_172
*1294 FILLER_0_32_193
*1295 FILLER_0_32_197
*1296 FILLER_0_32_236
*1297 FILLER_0_32_250
*1298 FILLER_0_32_253
*1299 FILLER_0_32_263
*1300 FILLER_0_32_27
*1301 FILLER_0_32_3
*1302 FILLER_0_32_303
*1303 FILLER_0_32_307
*1304 FILLER_0_32_330
*1305 FILLER_0_32_334
*1306 FILLER_0_32_45
*1307 FILLER_0_32_55
*1308 FILLER_0_32_83
*1309 FILLER_0_32_93
*1310 FILLER_0_33_101
*1311 FILLER_0_33_129
*1312 FILLER_0_33_141
*1313 FILLER_0_33_15
*1314 FILLER_0_33_153
*1315 FILLER_0_33_162
*1316 FILLER_0_33_169
*1317 FILLER_0_33_178
*1318 FILLER_0_33_190
*1319 FILLER_0_33_212
*1320 FILLER_0_33_258
*1321 FILLER_0_33_262
*1322 FILLER_0_33_27
*1323 FILLER_0_33_272
*1324 FILLER_0_33_3
*1325 FILLER_0_33_308
*1326 FILLER_0_33_316
*1327 FILLER_0_33_320
*1328 FILLER_0_33_332
*1329 FILLER_0_33_36
*1330 FILLER_0_33_48
*1331 FILLER_0_33_57
*1332 FILLER_0_33_61
*1333 FILLER_0_33_65
*1334 FILLER_0_33_93
*1335 FILLER_0_34_113
*1336 FILLER_0_34_119
*1337 FILLER_0_34_128
*1338 FILLER_0_34_141
*1339 FILLER_0_34_15
*1340 FILLER_0_34_152
*1341 FILLER_0_34_160
*1342 FILLER_0_34_170
*1343 FILLER_0_34_182
*1344 FILLER_0_34_194
*1345 FILLER_0_34_197
*1346 FILLER_0_34_205
*1347 FILLER_0_34_212
*1348 FILLER_0_34_224
*1349 FILLER_0_34_228
*1350 FILLER_0_34_240
*1351 FILLER_0_34_247
*1352 FILLER_0_34_256
*1353 FILLER_0_34_268
*1354 FILLER_0_34_27
*1355 FILLER_0_34_280
*1356 FILLER_0_34_29
*1357 FILLER_0_34_292
*1358 FILLER_0_34_3
*1359 FILLER_0_34_304
*1360 FILLER_0_34_309
*1361 FILLER_0_34_321
*1362 FILLER_0_34_331
*1363 FILLER_0_34_41
*1364 FILLER_0_34_53
*1365 FILLER_0_34_65
*1366 FILLER_0_34_76
*1367 FILLER_0_34_85
*1368 FILLER_0_34_97
*1369 FILLER_0_35_105
*1370 FILLER_0_35_111
*1371 FILLER_0_35_113
*1372 FILLER_0_35_125
*1373 FILLER_0_35_137
*1374 FILLER_0_35_15
*1375 FILLER_0_35_178
*1376 FILLER_0_35_182
*1377 FILLER_0_35_213
*1378 FILLER_0_35_241
*1379 FILLER_0_35_253
*1380 FILLER_0_35_27
*1381 FILLER_0_35_279
*1382 FILLER_0_35_281
*1383 FILLER_0_35_289
*1384 FILLER_0_35_295
*1385 FILLER_0_35_3
*1386 FILLER_0_35_332
*1387 FILLER_0_35_39
*1388 FILLER_0_35_51
*1389 FILLER_0_35_55
*1390 FILLER_0_35_57
*1391 FILLER_0_35_69
*1392 FILLER_0_35_81
*1393 FILLER_0_35_93
*1394 FILLER_0_36_109
*1395 FILLER_0_36_121
*1396 FILLER_0_36_133
*1397 FILLER_0_36_15
*1398 FILLER_0_36_175
*1399 FILLER_0_36_197
*1400 FILLER_0_36_206
*1401 FILLER_0_36_269
*1402 FILLER_0_36_27
*1403 FILLER_0_36_275
*1404 FILLER_0_36_29
*1405 FILLER_0_36_292
*1406 FILLER_0_36_3
*1407 FILLER_0_36_333
*1408 FILLER_0_36_41
*1409 FILLER_0_36_53
*1410 FILLER_0_36_65
*1411 FILLER_0_36_77
*1412 FILLER_0_36_83
*1413 FILLER_0_36_85
*1414 FILLER_0_36_97
*1415 FILLER_0_37_101
*1416 FILLER_0_37_109
*1417 FILLER_0_37_113
*1418 FILLER_0_37_125
*1419 FILLER_0_37_137
*1420 FILLER_0_37_15
*1421 FILLER_0_37_166
*1422 FILLER_0_37_175
*1423 FILLER_0_37_194
*1424 FILLER_0_37_217
*1425 FILLER_0_37_228
*1426 FILLER_0_37_27
*1427 FILLER_0_37_275
*1428 FILLER_0_37_279
*1429 FILLER_0_37_297
*1430 FILLER_0_37_3
*1431 FILLER_0_37_302
*1432 FILLER_0_37_332
*1433 FILLER_0_37_39
*1434 FILLER_0_37_51
*1435 FILLER_0_37_55
*1436 FILLER_0_37_57
*1437 FILLER_0_37_69
*1438 FILLER_0_37_81
*1439 FILLER_0_37_89
*1440 FILLER_0_38_10
*1441 FILLER_0_38_102
*1442 FILLER_0_38_106
*1443 FILLER_0_38_110
*1444 FILLER_0_38_113
*1445 FILLER_0_38_118
*1446 FILLER_0_38_122
*1447 FILLER_0_38_126
*1448 FILLER_0_38_130
*1449 FILLER_0_38_134
*1450 FILLER_0_38_14
*1451 FILLER_0_38_144
*1452 FILLER_0_38_148
*1453 FILLER_0_38_155
*1454 FILLER_0_38_167
*1455 FILLER_0_38_169
*1456 FILLER_0_38_177
*1457 FILLER_0_38_18
*1458 FILLER_0_38_182
*1459 FILLER_0_38_197
*1460 FILLER_0_38_215
*1461 FILLER_0_38_22
*1462 FILLER_0_38_223
*1463 FILLER_0_38_234
*1464 FILLER_0_38_238
*1465 FILLER_0_38_242
*1466 FILLER_0_38_246
*1467 FILLER_0_38_256
*1468 FILLER_0_38_262
*1469 FILLER_0_38_294
*1470 FILLER_0_38_303
*1471 FILLER_0_38_307
*1472 FILLER_0_38_309
*1473 FILLER_0_38_32
*1474 FILLER_0_38_323
*1475 FILLER_0_38_38
*1476 FILLER_0_38_42
*1477 FILLER_0_38_46
*1478 FILLER_0_38_50
*1479 FILLER_0_38_54
*1480 FILLER_0_38_57
*1481 FILLER_0_38_6
*1482 FILLER_0_38_62
*1483 FILLER_0_38_66
*1484 FILLER_0_38_70
*1485 FILLER_0_38_74
*1486 FILLER_0_38_78
*1487 FILLER_0_38_88
*1488 FILLER_0_38_94
*1489 FILLER_0_38_98
*1490 FILLER_0_3_105
*1491 FILLER_0_3_111
*1492 FILLER_0_3_113
*1493 FILLER_0_3_125
*1494 FILLER_0_3_137
*1495 FILLER_0_3_149
*1496 FILLER_0_3_15
*1497 FILLER_0_3_161
*1498 FILLER_0_3_167
*1499 FILLER_0_3_169
*1500 FILLER_0_3_181
*1501 FILLER_0_3_193
*1502 FILLER_0_3_205
*1503 FILLER_0_3_217
*1504 FILLER_0_3_223
*1505 FILLER_0_3_225
*1506 FILLER_0_3_237
*1507 FILLER_0_3_249
*1508 FILLER_0_3_261
*1509 FILLER_0_3_27
*1510 FILLER_0_3_273
*1511 FILLER_0_3_279
*1512 FILLER_0_3_281
*1513 FILLER_0_3_293
*1514 FILLER_0_3_3
*1515 FILLER_0_3_305
*1516 FILLER_0_3_317
*1517 FILLER_0_3_329
*1518 FILLER_0_3_39
*1519 FILLER_0_3_51
*1520 FILLER_0_3_55
*1521 FILLER_0_3_57
*1522 FILLER_0_3_69
*1523 FILLER_0_3_81
*1524 FILLER_0_3_93
*1525 FILLER_0_4_109
*1526 FILLER_0_4_121
*1527 FILLER_0_4_133
*1528 FILLER_0_4_139
*1529 FILLER_0_4_141
*1530 FILLER_0_4_15
*1531 FILLER_0_4_153
*1532 FILLER_0_4_165
*1533 FILLER_0_4_177
*1534 FILLER_0_4_189
*1535 FILLER_0_4_195
*1536 FILLER_0_4_197
*1537 FILLER_0_4_209
*1538 FILLER_0_4_221
*1539 FILLER_0_4_233
*1540 FILLER_0_4_245
*1541 FILLER_0_4_251
*1542 FILLER_0_4_253
*1543 FILLER_0_4_265
*1544 FILLER_0_4_27
*1545 FILLER_0_4_277
*1546 FILLER_0_4_289
*1547 FILLER_0_4_29
*1548 FILLER_0_4_3
*1549 FILLER_0_4_301
*1550 FILLER_0_4_307
*1551 FILLER_0_4_309
*1552 FILLER_0_4_321
*1553 FILLER_0_4_333
*1554 FILLER_0_4_41
*1555 FILLER_0_4_53
*1556 FILLER_0_4_65
*1557 FILLER_0_4_77
*1558 FILLER_0_4_83
*1559 FILLER_0_4_85
*1560 FILLER_0_4_97
*1561 FILLER_0_5_105
*1562 FILLER_0_5_111
*1563 FILLER_0_5_113
*1564 FILLER_0_5_125
*1565 FILLER_0_5_137
*1566 FILLER_0_5_149
*1567 FILLER_0_5_15
*1568 FILLER_0_5_161
*1569 FILLER_0_5_167
*1570 FILLER_0_5_169
*1571 FILLER_0_5_181
*1572 FILLER_0_5_193
*1573 FILLER_0_5_205
*1574 FILLER_0_5_217
*1575 FILLER_0_5_223
*1576 FILLER_0_5_225
*1577 FILLER_0_5_237
*1578 FILLER_0_5_249
*1579 FILLER_0_5_261
*1580 FILLER_0_5_27
*1581 FILLER_0_5_273
*1582 FILLER_0_5_279
*1583 FILLER_0_5_281
*1584 FILLER_0_5_293
*1585 FILLER_0_5_3
*1586 FILLER_0_5_305
*1587 FILLER_0_5_317
*1588 FILLER_0_5_329
*1589 FILLER_0_5_39
*1590 FILLER_0_5_51
*1591 FILLER_0_5_55
*1592 FILLER_0_5_57
*1593 FILLER_0_5_69
*1594 FILLER_0_5_81
*1595 FILLER_0_5_93
*1596 FILLER_0_6_109
*1597 FILLER_0_6_121
*1598 FILLER_0_6_133
*1599 FILLER_0_6_139
*1600 FILLER_0_6_141
*1601 FILLER_0_6_15
*1602 FILLER_0_6_153
*1603 FILLER_0_6_165
*1604 FILLER_0_6_177
*1605 FILLER_0_6_189
*1606 FILLER_0_6_195