*SPEF "ieee 1481-1999"
*DESIGN "tt_um_calculator_muehlbb"
*DATE "09:28:46 Wednesday April 10, 2024"
*VENDOR "The OpenROAD Project"
*PROGRAM "OpenROAD"
*VERSION "0889970d1790a2617e69f253221b8bd7626e51dc"
*DESIGN_FLOW "NAME_SCOPE LOCAL" "PIN_CAP NONE"
*DIVIDER /
*DELIMITER :
*BUS_DELIMITER []
*T_UNIT 1 NS
*C_UNIT 1 PF
*R_UNIT 1 OHM
*L_UNIT 1 HENRY

*NAME_MAP
*3 clk
*4 ena
*5 rst_n
*6 ui_in[0]
*7 ui_in[1]
*8 ui_in[2]
*9 ui_in[3]
*10 ui_in[4]
*11 ui_in[5]
*12 ui_in[6]
*13 ui_in[7]
*14 uio_in[0]
*15 uio_in[1]
*16 uio_in[2]
*17 uio_in[3]
*18 uio_in[4]
*19 uio_in[5]
*20 uio_in[6]
*21 uio_in[7]
*22 uio_oe[0]
*23 uio_oe[1]
*24 uio_oe[2]
*25 uio_oe[3]
*26 uio_oe[4]
*27 uio_oe[5]
*28 uio_oe[6]
*29 uio_oe[7]
*30 uio_out[0]
*31 uio_out[1]
*32 uio_out[2]
*33 uio_out[3]
*34 uio_out[4]
*35 uio_out[5]
*36 uio_out[6]
*37 uio_out[7]
*38 uo_out[0]
*39 uo_out[1]
*40 uo_out[2]
*41 uo_out[3]
*42 uo_out[4]
*43 uo_out[5]
*44 uo_out[6]
*45 uo_out[7]
*46 _0004_
*47 _0005_
*48 _0006_
*49 _0007_
*50 _0008_
*51 _0009_
*52 _0010_
*53 _0011_
*54 _0012_
*55 _0013_
*56 _0014_
*57 _0015_
*58 _0016_
*59 _0017_
*60 _0018_
*61 _0019_
*62 _0020_
*63 _0021_
*64 _0022_
*65 _0023_
*66 _0024_
*67 _0025_
*68 _0026_
*69 _0027_
*70 _0028_
*71 _0029_
*72 _0030_
*73 _0031_
*74 _0032_
*75 _0033_
*76 _0034_
*77 _0035_
*78 _0036_
*79 _0037_
*80 _0038_
*81 _0039_
*82 _0040_
*83 _0041_
*84 _0042_
*85 _0043_
*86 _0044_
*87 _0045_
*88 _0046_
*89 _0047_
*90 _0048_
*91 _0049_
*92 _0050_
*93 _0051_
*94 _0052_
*95 _0053_
*96 _0054_
*97 _0055_
*98 _0056_
*99 _0057_
*100 _0058_
*101 _0059_
*102 _0060_
*103 _0061_
*104 _0062_
*105 _0063_
*106 _0064_
*107 _0065_
*108 _0066_
*109 _0067_
*110 _0068_
*111 _0069_
*112 _0070_
*113 _0071_
*114 _0072_
*115 _0073_
*116 _0074_
*117 _0075_
*118 _0076_
*119 _0077_
*120 _0078_
*121 _0079_
*122 _0080_
*123 _0081_
*124 _0082_
*125 _0083_
*126 _0084_
*127 _0085_
*128 _0086_
*129 _0087_
*130 _0088_
*131 _0089_
*132 _0090_
*133 _0091_
*134 _0092_
*135 _0093_
*136 _0094_
*137 _0095_
*138 _0096_
*139 _0097_
*140 _0098_
*141 _0099_
*142 _0100_
*143 _0101_
*144 _0102_
*145 _0103_
*146 _0104_
*147 _0105_
*148 _0106_
*149 _0107_
*150 _0108_
*151 _0109_
*152 _0110_
*153 _0111_
*154 _0112_
*155 _0113_
*156 _0114_
*157 _0115_
*158 _0116_
*159 _0117_
*160 _0118_
*161 _0119_
*162 _0120_
*163 _0121_
*164 _0122_
*165 _0123_
*166 _0124_
*167 _0125_
*168 _0126_
*169 _0127_
*170 _0128_
*171 _0129_
*172 _0130_
*173 _0131_
*174 _0132_
*175 _0133_
*176 _0134_
*177 _0135_
*178 _0136_
*179 _0137_
*180 _0138_
*181 _0139_
*182 _0140_
*183 _0141_
*184 _0142_
*185 _0143_
*186 _0144_
*187 _0145_
*188 _0146_
*189 _0147_
*190 _0148_
*191 _0149_
*192 _0150_
*193 _0151_
*194 _0152_
*195 _0153_
*196 _0154_
*197 _0155_
*198 _0156_
*199 _0157_
*200 _0158_
*201 _0159_
*202 _0160_
*203 _0161_
*204 _0162_
*205 _0163_
*206 _0164_
*207 _0165_
*208 _0166_
*209 _0167_
*210 _0168_
*211 _0169_
*212 _0170_
*213 _0171_
*214 _0172_
*215 _0173_
*216 _0174_
*217 _0175_
*218 _0176_
*219 _0177_
*220 _0178_
*221 _0179_
*222 _0180_
*223 _0181_
*224 _0182_
*225 _0183_
*226 _0184_
*227 _0185_
*228 _0186_
*229 _0187_
*230 _0188_
*231 _0189_
*232 _0190_
*233 _0191_
*234 _0192_
*235 _0193_
*236 _0194_
*237 _0195_
*238 _0196_
*239 _0197_
*240 _0198_
*241 _0199_
*242 _0200_
*243 _0201_
*244 _0202_
*245 _0203_
*246 _0204_
*247 _0205_
*248 _0206_
*249 _0207_
*250 _0208_
*251 _0209_
*252 _0210_
*253 _0211_
*254 _0212_
*255 _0213_
*256 _0214_
*257 _0215_
*258 _0216_
*259 _0217_
*260 _0218_
*261 _0219_
*262 _0220_
*263 _0221_
*264 _0222_
*265 _0223_
*266 _0224_
*267 _0225_
*268 _0226_
*269 _0227_
*270 _0228_
*271 _0229_
*272 _0230_
*273 _0231_
*274 _0232_
*275 _0233_
*276 _0234_
*277 _0235_
*278 _0236_
*279 _0237_
*280 _0238_
*281 _0239_
*282 _0240_
*283 _0241_
*284 _0242_
*285 _0243_
*286 _0244_
*287 _0245_
*288 _0246_
*289 _0247_
*290 _0248_
*291 _0249_
*292 _0250_
*293 _0251_
*294 _0252_
*295 _0253_
*296 _0254_
*297 _0255_
*298 _0256_
*299 _0257_
*300 _0258_
*301 _0259_
*302 _0260_
*303 _0261_
*304 _0262_
*305 _0263_
*306 _0264_
*307 _0265_
*308 _0266_
*309 _0267_
*310 _0268_
*311 _0269_
*312 _0270_
*313 _0271_
*314 _0272_
*315 _0273_
*316 _0274_
*317 _0275_
*318 _0276_
*319 _0277_
*320 _0278_
*321 _0279_
*322 _0280_
*323 _0281_
*324 _0282_
*325 _0283_
*326 _0284_
*327 _0285_
*328 _0286_
*329 _0287_
*330 _0288_
*331 _0289_
*332 _0290_
*333 _0291_
*334 _0292_
*335 _0293_
*336 _0294_
*337 _0295_
*338 _0296_
*339 _0297_
*340 _0298_
*341 _0299_
*342 _0300_
*343 _0301_
*344 _0302_
*345 _0303_
*346 _0304_
*347 _0305_
*348 _0306_
*349 _0307_
*350 _0308_
*351 _0309_
*352 _0310_
*353 _0311_
*354 _0312_
*355 _0313_
*356 _0314_
*357 _0315_
*358 _0316_
*359 _0317_
*360 _0318_
*361 _0319_
*362 _0320_
*363 _0321_
*364 _0322_
*365 _0323_
*366 _0324_
*367 _0325_
*368 _0326_
*369 _0327_
*370 _0328_
*371 _0329_
*372 _0330_
*373 _0331_
*374 _0332_
*375 _0333_
*376 _0334_
*377 _0335_
*378 _0336_
*379 _0337_
*380 _0338_
*381 _0339_
*382 _0340_
*383 _0341_
*384 _0342_
*385 _0343_
*386 _0344_
*387 _0345_
*388 _0346_
*389 _0347_
*390 _0348_
*391 _0349_
*392 _0350_
*393 _0351_
*394 _0352_
*395 _0353_
*396 _0354_
*397 _0355_
*398 _0356_
*399 _0357_
*400 _0358_
*401 _0359_
*402 _0360_
*403 _0361_
*404 _0362_
*405 _0363_
*406 _0364_
*407 _0365_
*408 _0366_
*409 _0367_
*410 _0368_
*411 _0369_
*412 _0370_
*413 _0371_
*414 _0372_
*415 _0373_
*416 _0374_
*417 _0375_
*418 _0376_
*419 _0377_
*420 _0378_
*421 _0379_
*422 _0380_
*423 _0381_
*424 _0382_
*425 _0383_
*426 _0384_
*427 _0385_
*428 _0386_
*429 _0387_
*430 _0388_
*431 _0389_
*432 _0390_
*433 _0391_
*434 _0392_
*435 _0393_
*436 _0394_
*437 _0395_
*438 _0396_
*439 _0397_
*440 _0398_
*441 _0399_
*442 _0400_
*443 _0401_
*444 _0402_
*445 _0403_
*446 _0404_
*447 _0405_
*448 _0406_
*449 _0407_
*450 _0408_
*451 _0409_
*452 _0410_
*453 _0411_
*454 _0412_
*455 _0413_
*456 _0414_
*457 _0415_
*458 _0416_
*459 _0417_
*460 _0418_
*461 _0419_
*462 _0420_
*463 _0421_
*464 _0422_
*465 _0423_
*466 _0424_
*467 _0425_
*468 _0426_
*469 _0427_
*470 _0428_
*471 _0429_
*472 _0430_
*473 _0431_
*474 _0432_
*475 _0433_
*476 _0434_
*477 _0435_
*478 _0436_
*479 _0437_
*480 _0438_
*481 _0439_
*482 _0440_
*483 _0441_
*484 _0442_
*485 _0443_
*486 _0444_
*487 _0445_
*488 _0446_
*489 _0447_
*490 _0448_
*491 _0449_
*492 _0450_
*493 _0451_
*494 _0452_
*495 _0453_
*496 _0454_
*497 _0455_
*498 _0456_
*499 _0457_
*500 _0458_
*501 _0459_
*502 _0460_
*503 _0461_
*504 _0462_
*505 _0463_
*506 _0464_
*507 _0465_
*508 _0466_
*509 _0467_
*510 _0468_
*511 _0469_
*512 _0470_
*513 _0471_
*514 _0472_
*515 _0473_
*516 _0474_
*517 _0475_
*518 _0476_
*519 _0477_
*520 _0478_
*521 _0479_
*522 _0480_
*523 _0481_
*524 _0482_
*525 _0483_
*526 _0484_
*527 _0485_
*528 _0486_
*529 _0487_
*530 _0488_
*531 _0489_
*532 _0490_
*533 _0491_
*534 _0492_
*535 _0493_
*536 _0494_
*537 _0495_
*538 _0496_
*539 _0497_
*540 _0498_
*541 _0499_
*542 _0500_
*543 _0501_
*544 _0502_
*545 _0503_
*546 _0504_
*547 _0505_
*548 _0506_
*549 _0507_
*550 _0508_
*551 _0509_
*552 _0510_
*553 _0511_
*554 _0512_
*555 _0513_
*556 _0514_
*557 _0515_
*558 _0516_
*559 _0517_
*560 _0518_
*561 _0519_
*562 _0520_
*563 _0521_
*564 _0522_
*565 _0523_
*566 _0524_
*567 _0525_
*568 _0526_
*569 _0527_
*570 _0528_
*571 _0529_
*572 _0530_
*573 _0531_
*574 _0532_
*575 _0533_
*576 _0534_
*577 _0535_
*578 _0536_
*579 _0537_
*580 _0538_
*581 _0539_
*582 _0540_
*583 _0541_
*584 _0542_
*585 _0543_
*586 _0544_
*587 _0545_
*588 _0546_
*589 _0547_
*590 _0548_
*591 _0549_
*592 _0550_
*593 _0551_
*594 _0552_
*595 _0553_
*596 _0554_
*597 _0555_
*598 _0556_
*599 _0557_
*600 _0558_
*601 _0559_
*602 _0560_
*603 _0561_
*604 _0562_
*605 alu_1\.a\[0\]
*606 alu_1\.a\[10\]
*607 alu_1\.a\[11\]
*608 alu_1\.a\[12\]
*609 alu_1\.a\[13\]
*610 alu_1\.a\[14\]
*611 alu_1\.a\[15\]
*612 alu_1\.a\[1\]
*613 alu_1\.a\[2\]
*614 alu_1\.a\[3\]
*615 alu_1\.a\[4\]
*616 alu_1\.a\[5\]
*617 alu_1\.a\[6\]
*618 alu_1\.a\[7\]
*619 alu_1\.a\[8\]
*620 alu_1\.a\[9\]
*621 alu_1\.b\[0\]
*622 alu_1\.b\[10\]
*623 alu_1\.b\[11\]
*624 alu_1\.b\[12\]
*625 alu_1\.b\[13\]
*626 alu_1\.b\[14\]
*627 alu_1\.b\[15\]
*628 alu_1\.b\[1\]
*629 alu_1\.b\[2\]
*630 alu_1\.b\[3\]
*631 alu_1\.b\[4\]
*632 alu_1\.b\[5\]
*633 alu_1\.b\[6\]
*634 alu_1\.b\[7\]
*635 alu_1\.b\[8\]
*636 alu_1\.b\[9\]
*637 alu_1\.sel\[0\]
*638 alu_1\.sel\[1\]
*639 alu_1\.sel\[2\]
*640 alu_1\.sel\[3\]
*641 clknet_0_clk
*642 clknet_2_0__leaf_clk
*643 clknet_2_1__leaf_clk
*644 clknet_2_2__leaf_clk
*645 clknet_2_3__leaf_clk
*646 net1
*647 net10
*648 net11
*649 net12
*650 net13
*651 net14
*652 net15
*653 net16
*654 net17
*655 net18
*656 net19
*657 net2
*658 net3
*659 net4
*660 net5
*661 net6
*662 net7
*663 net8
*664 net9
*665 ANTENNA_1
*666 ANTENNA_2
*667 ANTENNA_3
*668 FILLER_0_0_109
*669 FILLER_0_0_113
*670 FILLER_0_0_125
*671 FILLER_0_0_137
*672 FILLER_0_0_141
*673 FILLER_0_0_15
*674 FILLER_0_0_153
*675 FILLER_0_0_165
*676 FILLER_0_0_169
*677 FILLER_0_0_181
*678 FILLER_0_0_193
*679 FILLER_0_0_197
*680 FILLER_0_0_209
*681 FILLER_0_0_221
*682 FILLER_0_0_225
*683 FILLER_0_0_237
*684 FILLER_0_0_249
*685 FILLER_0_0_253
*686 FILLER_0_0_265
*687 FILLER_0_0_27
*688 FILLER_0_0_277
*689 FILLER_0_0_281
*690 FILLER_0_0_29
*691 FILLER_0_0_293
*692 FILLER_0_0_3
*693 FILLER_0_0_305
*694 FILLER_0_0_309
*695 FILLER_0_0_321
*696 FILLER_0_0_333
*697 FILLER_0_0_41
*698 FILLER_0_0_53
*699 FILLER_0_0_57
*700 FILLER_0_0_69
*701 FILLER_0_0_81
*702 FILLER_0_0_85
*703 FILLER_0_0_97
*704 FILLER_0_10_109
*705 FILLER_0_10_121
*706 FILLER_0_10_133
*707 FILLER_0_10_139
*708 FILLER_0_10_141
*709 FILLER_0_10_15
*710 FILLER_0_10_153
*711 FILLER_0_10_165
*712 FILLER_0_10_177
*713 FILLER_0_10_189
*714 FILLER_0_10_195
*715 FILLER_0_10_197
*716 FILLER_0_10_209
*717 FILLER_0_10_221
*718 FILLER_0_10_233
*719 FILLER_0_10_245
*720 FILLER_0_10_251
*721 FILLER_0_10_253
*722 FILLER_0_10_265
*723 FILLER_0_10_27
*724 FILLER_0_10_277
*725 FILLER_0_10_289
*726 FILLER_0_10_29
*727 FILLER_0_10_3
*728 FILLER_0_10_301
*729 FILLER_0_10_307
*730 FILLER_0_10_309
*731 FILLER_0_10_321
*732 FILLER_0_10_333
*733 FILLER_0_10_41
*734 FILLER_0_10_53
*735 FILLER_0_10_65
*736 FILLER_0_10_77
*737 FILLER_0_10_83
*738 FILLER_0_10_85
*739 FILLER_0_10_97
*740 FILLER_0_11_105
*741 FILLER_0_11_111
*742 FILLER_0_11_113
*743 FILLER_0_11_125
*744 FILLER_0_11_137
*745 FILLER_0_11_143
*746 FILLER_0_11_147
*747 FILLER_0_11_15
*748 FILLER_0_11_159
*749 FILLER_0_11_167
*750 FILLER_0_11_185
*751 FILLER_0_11_205
*752 FILLER_0_11_217
*753 FILLER_0_11_223
*754 FILLER_0_11_225
*755 FILLER_0_11_233
*756 FILLER_0_11_245
*757 FILLER_0_11_257
*758 FILLER_0_11_269
*759 FILLER_0_11_27
*760 FILLER_0_11_277
*761 FILLER_0_11_281
*762 FILLER_0_11_293
*763 FILLER_0_11_3
*764 FILLER_0_11_305
*765 FILLER_0_11_317
*766 FILLER_0_11_329
*767 FILLER_0_11_39
*768 FILLER_0_11_51
*769 FILLER_0_11_55
*770 FILLER_0_11_57
*771 FILLER_0_11_69
*772 FILLER_0_11_81
*773 FILLER_0_11_93
*774 FILLER_0_12_109
*775 FILLER_0_12_121
*776 FILLER_0_12_128
*777 FILLER_0_12_15
*778 FILLER_0_12_158
*779 FILLER_0_12_167
*780 FILLER_0_12_179
*781 FILLER_0_12_194
*782 FILLER_0_12_197
*783 FILLER_0_12_228
*784 FILLER_0_12_234
*785 FILLER_0_12_253
*786 FILLER_0_12_265
*787 FILLER_0_12_27
*788 FILLER_0_12_277
*789 FILLER_0_12_289
*790 FILLER_0_12_29
*791 FILLER_0_12_3
*792 FILLER_0_12_301
*793 FILLER_0_12_307
*794 FILLER_0_12_309
*795 FILLER_0_12_321
*796 FILLER_0_12_333
*797 FILLER_0_12_41
*798 FILLER_0_12_53
*799 FILLER_0_12_65
*800 FILLER_0_12_77
*801 FILLER_0_12_83
*802 FILLER_0_12_85
*803 FILLER_0_12_97
*804 FILLER_0_13_105
*805 FILLER_0_13_113
*806 FILLER_0_13_119
*807 FILLER_0_13_146
*808 FILLER_0_13_15
*809 FILLER_0_13_157
*810 FILLER_0_13_169
*811 FILLER_0_13_173
*812 FILLER_0_13_187
*813 FILLER_0_13_191
*814 FILLER_0_13_205
*815 FILLER_0_13_216
*816 FILLER_0_13_220
*817 FILLER_0_13_225
*818 FILLER_0_13_233
*819 FILLER_0_13_242
*820 FILLER_0_13_251
*821 FILLER_0_13_27
*822 FILLER_0_13_270
*823 FILLER_0_13_278
*824 FILLER_0_13_281
*825 FILLER_0_13_293
*826 FILLER_0_13_3
*827 FILLER_0_13_305
*828 FILLER_0_13_317
*829 FILLER_0_13_329
*830 FILLER_0_13_39
*831 FILLER_0_13_51
*832 FILLER_0_13_55
*833 FILLER_0_13_57
*834 FILLER_0_13_69
*835 FILLER_0_13_81
*836 FILLER_0_13_93
*837 FILLER_0_14_124
*838 FILLER_0_14_136
*839 FILLER_0_14_15
*840 FILLER_0_14_156
*841 FILLER_0_14_162
*842 FILLER_0_14_169
*843 FILLER_0_14_185
*844 FILLER_0_14_193
*845 FILLER_0_14_197
*846 FILLER_0_14_207
*847 FILLER_0_14_218
*848 FILLER_0_14_236
*849 FILLER_0_14_240
*850 FILLER_0_14_250
*851 FILLER_0_14_253
*852 FILLER_0_14_261
*853 FILLER_0_14_27
*854 FILLER_0_14_284
*855 FILLER_0_14_29
*856 FILLER_0_14_295
*857 FILLER_0_14_3
*858 FILLER_0_14_307
*859 FILLER_0_14_309
*860 FILLER_0_14_321
*861 FILLER_0_14_333
*862 FILLER_0_14_41
*863 FILLER_0_14_53
*864 FILLER_0_14_65
*865 FILLER_0_14_77
*866 FILLER_0_14_83
*867 FILLER_0_14_85
*868 FILLER_0_14_97
*869 FILLER_0_15_105
*870 FILLER_0_15_111
*871 FILLER_0_15_113
*872 FILLER_0_15_121
*873 FILLER_0_15_126
*874 FILLER_0_15_134
*875 FILLER_0_15_15
*876 FILLER_0_15_158
*877 FILLER_0_15_175
*878 FILLER_0_15_179
*879 FILLER_0_15_183
*880 FILLER_0_15_191
*881 FILLER_0_15_210
*882 FILLER_0_15_214
*883 FILLER_0_15_220
*884 FILLER_0_15_232
*885 FILLER_0_15_248
*886 FILLER_0_15_260
*887 FILLER_0_15_27
*888 FILLER_0_15_272
*889 FILLER_0_15_281
*890 FILLER_0_15_299
*891 FILLER_0_15_3
*892 FILLER_0_15_311
*893 FILLER_0_15_323
*894 FILLER_0_15_39
*895 FILLER_0_15_51
*896 FILLER_0_15_55
*897 FILLER_0_15_57
*898 FILLER_0_15_69
*899 FILLER_0_15_81
*900 FILLER_0_15_93
*901 FILLER_0_16_108
*902 FILLER_0_16_116
*903 FILLER_0_16_133
*904 FILLER_0_16_139
*905 FILLER_0_16_141
*906 FILLER_0_16_148
*907 FILLER_0_16_15
*908 FILLER_0_16_161
*909 FILLER_0_16_173
*910 FILLER_0_16_181
*911 FILLER_0_16_187
*912 FILLER_0_16_194
*913 FILLER_0_16_197
*914 FILLER_0_16_209
*915 FILLER_0_16_221
*916 FILLER_0_16_233
*917 FILLER_0_16_250
*918 FILLER_0_16_260
*919 FILLER_0_16_27
*920 FILLER_0_16_274
*921 FILLER_0_16_282
*922 FILLER_0_16_288
*923 FILLER_0_16_29
*924 FILLER_0_16_292
*925 FILLER_0_16_3
*926 FILLER_0_16_328
*927 FILLER_0_16_334
*928 FILLER_0_16_41
*929 FILLER_0_16_53
*930 FILLER_0_16_65
*931 FILLER_0_16_77
*932 FILLER_0_16_83
*933 FILLER_0_16_85
*934 FILLER_0_16_93
*935 FILLER_0_17_107
*936 FILLER_0_17_111
*937 FILLER_0_17_120
*938 FILLER_0_17_133
*939 FILLER_0_17_15
*940 FILLER_0_17_157
*941 FILLER_0_17_163
*942 FILLER_0_17_181
*943 FILLER_0_17_194
*944 FILLER_0_17_198
*945 FILLER_0_17_219
*946 FILLER_0_17_223
*947 FILLER_0_17_232
*948 FILLER_0_17_238
*949 FILLER_0_17_246
*950 FILLER_0_17_258
*951 FILLER_0_17_27
*952 FILLER_0_17_270
*953 FILLER_0_17_284
*954 FILLER_0_17_288
*955 FILLER_0_17_3
*956 FILLER_0_17_301
*957 FILLER_0_17_313
*958 FILLER_0_17_325
*959 FILLER_0_17_33
*960 FILLER_0_17_333
*961 FILLER_0_17_53
*962 FILLER_0_17_63
*963 FILLER_0_17_82
*964 FILLER_0_17_88
*965 FILLER_0_17_97
*966 FILLER_0_18_108
*967 FILLER_0_18_116
*968 FILLER_0_18_124
*969 FILLER_0_18_130
*970 FILLER_0_18_138
*971 FILLER_0_18_141
*972 FILLER_0_18_145
*973 FILLER_0_18_15
*974 FILLER_0_18_153
*975 FILLER_0_18_165
*976 FILLER_0_18_172
*977 FILLER_0_18_184
*978 FILLER_0_18_197
*979 FILLER_0_18_209
*980 FILLER_0_18_214
*981 FILLER_0_18_233
*982 FILLER_0_18_246
*983 FILLER_0_18_253
*984 FILLER_0_18_257
*985 FILLER_0_18_26
*986 FILLER_0_18_266
*987 FILLER_0_18_270
*988 FILLER_0_18_276
*989 FILLER_0_18_288
*990 FILLER_0_18_292
*991 FILLER_0_18_298
*992 FILLER_0_18_3
*993 FILLER_0_18_306
*994 FILLER_0_18_45
*995 FILLER_0_18_53
*996 FILLER_0_18_64
*997 FILLER_0_18_72
*998 FILLER_0_18_92
*999 FILLER_0_19_105
*1000 FILLER_0_19_11
*1001 FILLER_0_19_111
*1002 FILLER_0_19_121
*1003 FILLER_0_19_129
*1004 FILLER_0_19_137
*1005 FILLER_0_19_166
*1006 FILLER_0_19_169
*1007 FILLER_0_19_186
*1008 FILLER_0_19_190
*1009 FILLER_0_19_205
*1010 FILLER_0_19_21
*1011 FILLER_0_19_221
*1012 FILLER_0_19_225
*1013 FILLER_0_19_231
*1014 FILLER_0_19_25
*1015 FILLER_0_19_250
*1016 FILLER_0_19_262
*1017 FILLER_0_19_266
*1018 FILLER_0_19_278
*1019 FILLER_0_19_281
*1020 FILLER_0_19_295
*1021 FILLER_0_19_3
*1022 FILLER_0_19_307
*1023 FILLER_0_19_329
*1024 FILLER_0_19_36
*1025 FILLER_0_19_44
*1026 FILLER_0_19_53
*1027 FILLER_0_19_57
*1028 FILLER_0_19_7
*1029 FILLER_0_19_70
*1030 FILLER_0_19_80
*1031 FILLER_0_19_93
*1032 FILLER_0_1_105
*1033 FILLER_0_1_111
*1034 FILLER_0_1_113
*1035 FILLER_0_1_125
*1036 FILLER_0_1_137
*1037 FILLER_0_1_149
*1038 FILLER_0_1_15
*1039 FILLER_0_1_161
*1040 FILLER_0_1_167
*1041 FILLER_0_1_169
*1042 FILLER_0_1_181
*1043 FILLER_0_1_193
*1044 FILLER_0_1_205
*1045 FILLER_0_1_217
*1046 FILLER_0_1_223
*1047 FILLER_0_1_225
*1048 FILLER_0_1_237
*1049 FILLER_0_1_249
*1050 FILLER_0_1_261
*1051 FILLER_0_1_27
*1052 FILLER_0_1_273
*1053 FILLER_0_1_279
*1054 FILLER_0_1_281
*1055 FILLER_0_1_293
*1056 FILLER_0_1_3
*1057 FILLER_0_1_305
*1058 FILLER_0_1_317
*1059 FILLER_0_1_329
*1060 FILLER_0_1_39
*1061 FILLER_0_1_51
*1062 FILLER_0_1_55
*1063 FILLER_0_1_57
*1064 FILLER_0_1_69
*1065 FILLER_0_1_81
*1066 FILLER_0_1_93
*1067 FILLER_0_20_103
*1068 FILLER_0_20_115
*1069 FILLER_0_20_135
*1070 FILLER_0_20_139
*1071 FILLER_0_20_141
*1072 FILLER_0_20_152
*1073 FILLER_0_20_160
*1074 FILLER_0_20_168
*1075 FILLER_0_20_176
*1076 FILLER_0_20_194
*1077 FILLER_0_20_197
*1078 FILLER_0_20_206
*1079 FILLER_0_20_21
*1080 FILLER_0_20_218
*1081 FILLER_0_20_230
*1082 FILLER_0_20_236
*1083 FILLER_0_20_245
*1084 FILLER_0_20_251
*1085 FILLER_0_20_253
*1086 FILLER_0_20_261
*1087 FILLER_0_20_27
*1088 FILLER_0_20_273
*1089 FILLER_0_20_29
*1090 FILLER_0_20_293
*1091 FILLER_0_20_299
*1092 FILLER_0_20_3
*1093 FILLER_0_20_306
*1094 FILLER_0_20_317
*1095 FILLER_0_20_33
*1096 FILLER_0_20_330
*1097 FILLER_0_20_334
*1098 FILLER_0_20_47
*1099 FILLER_0_20_62
*1100 FILLER_0_20_72
*1101 FILLER_0_20_95
*1102 FILLER_0_21_108
*1103 FILLER_0_21_11
*1104 FILLER_0_21_128
*1105 FILLER_0_21_132
*1106 FILLER_0_21_140
*1107 FILLER_0_21_15
*1108 FILLER_0_21_176
*1109 FILLER_0_21_180
*1110 FILLER_0_21_185
*1111 FILLER_0_21_197
*1112 FILLER_0_21_218
*1113 FILLER_0_21_225
*1114 FILLER_0_21_234
*1115 FILLER_0_21_246
*1116 FILLER_0_21_252
*1117 FILLER_0_21_26
*1118 FILLER_0_21_261
*1119 FILLER_0_21_267
*1120 FILLER_0_21_275
*1121 FILLER_0_21_279
*1122 FILLER_0_21_292
*1123 FILLER_0_21_3
*1124 FILLER_0_21_304
*1125 FILLER_0_21_334
*1126 FILLER_0_21_38
*1127 FILLER_0_21_45
*1128 FILLER_0_21_53
*1129 FILLER_0_21_57
*1130 FILLER_0_21_69
*1131 FILLER_0_21_7
*1132 FILLER_0_21_81
*1133 FILLER_0_22_107
*1134 FILLER_0_22_119
*1135 FILLER_0_22_123
*1136 FILLER_0_22_129
*1137 FILLER_0_22_137
*1138 FILLER_0_22_141
*1139 FILLER_0_22_153
*1140 FILLER_0_22_165
*1141 FILLER_0_22_177
*1142 FILLER_0_22_192
*1143 FILLER_0_22_204
*1144 FILLER_0_22_209
*1145 FILLER_0_22_215
*1146 FILLER_0_22_22
*1147 FILLER_0_22_228
*1148 FILLER_0_22_232
*1149 FILLER_0_22_239
*1150 FILLER_0_22_245
*1151 FILLER_0_22_249
*1152 FILLER_0_22_253
*1153 FILLER_0_22_265
*1154 FILLER_0_22_276
*1155 FILLER_0_22_29
*1156 FILLER_0_22_293
*1157 FILLER_0_22_3
*1158 FILLER_0_22_301
*1159 FILLER_0_22_313
*1160 FILLER_0_22_325
*1161 FILLER_0_22_333
*1162 FILLER_0_22_45
*1163 FILLER_0_22_62
*1164 FILLER_0_22_81
*1165 FILLER_0_22_95
*1166 FILLER_0_23_11
*1167 FILLER_0_23_121
*1168 FILLER_0_23_133
*1169 FILLER_0_23_148
*1170 FILLER_0_23_164
*1171 FILLER_0_23_17
*1172 FILLER_0_23_195
*1173 FILLER_0_23_203
*1174 FILLER_0_23_214
*1175 FILLER_0_23_222
*1176 FILLER_0_23_268
*1177 FILLER_0_23_281
*1178 FILLER_0_23_29
*1179 FILLER_0_23_290
*1180 FILLER_0_23_294
*1181 FILLER_0_23_3
*1182 FILLER_0_23_309
*1183 FILLER_0_23_45
*1184 FILLER_0_23_53
*1185 FILLER_0_23_61
*1186 FILLER_0_23_73
*1187 FILLER_0_23_81
*1188 FILLER_0_23_85
*1189 FILLER_0_23_97
*1190 FILLER_0_24_112
*1191 FILLER_0_24_131
*1192 FILLER_0_24_139
*1193 FILLER_0_24_141
*1194 FILLER_0_24_145
*1195 FILLER_0_24_159
*1196 FILLER_0_24_165
*1197 FILLER_0_24_197
*1198 FILLER_0_24_226
*1199 FILLER_0_24_243
*1200 FILLER_0_24_251
*1201 FILLER_0_24_259
*1202 FILLER_0_24_26
*1203 FILLER_0_24_267
*1204 FILLER_0_24_278
*1205 FILLER_0_24_290
*1206 FILLER_0_24_296
*1207 FILLER_0_24_3
*1208 FILLER_0_24_304
*1209 FILLER_0_24_309
*1210 FILLER_0_24_317
*1211 FILLER_0_24_324
*1212 FILLER_0_24_332
*1213 FILLER_0_24_38
*1214 FILLER_0_24_53
*1215 FILLER_0_24_65
*1216 FILLER_0_24_78
*1217 FILLER_0_24_9
*1218 FILLER_0_24_90
*1219 FILLER_0_25_105
*1220 FILLER_0_25_111
*1221 FILLER_0_25_141
*1222 FILLER_0_25_15
*1223 FILLER_0_25_153
*1224 FILLER_0_25_161
*1225 FILLER_0_25_196
*1226 FILLER_0_25_208
*1227 FILLER_0_25_220
*1228 FILLER_0_25_231
*1229 FILLER_0_25_250
*1230 FILLER_0_25_262
*1231 FILLER_0_25_27
*1232 FILLER_0_25_294
*1233 FILLER_0_25_3
*1234 FILLER_0_25_304
*1235 FILLER_0_25_312
*1236 FILLER_0_25_321
*1237 FILLER_0_25_325
*1238 FILLER_0_25_332
*1239 FILLER_0_25_35
*1240 FILLER_0_25_51
*1241 FILLER_0_25_55
*1242 FILLER_0_25_62
*1243 FILLER_0_25_74
*1244 FILLER_0_25_82
*1245 FILLER_0_25_88
*1246 FILLER_0_25_96
*1247 FILLER_0_26_105
*1248 FILLER_0_26_11
*1249 FILLER_0_26_116
*1250 FILLER_0_26_125
*1251 FILLER_0_26_129
*1252 FILLER_0_26_133
*1253 FILLER_0_26_139
*1254 FILLER_0_26_149
*1255 FILLER_0_26_15
*1256 FILLER_0_26_159
*1257 FILLER_0_26_167
*1258 FILLER_0_26_174
*1259 FILLER_0_26_186
*1260 FILLER_0_26_203
*1261 FILLER_0_26_207
*1262 FILLER_0_26_221
*1263 FILLER_0_26_240
*1264 FILLER_0_26_253
*1265 FILLER_0_26_265
*1266 FILLER_0_26_27
*1267 FILLER_0_26_277
*1268 FILLER_0_26_289
*1269 FILLER_0_26_29
*1270 FILLER_0_26_3
*1271 FILLER_0_26_316
*1272 FILLER_0_26_328
*1273 FILLER_0_26_33
*1274 FILLER_0_26_334
*1275 FILLER_0_26_46
*1276 FILLER_0_26_58
*1277 FILLER_0_26_73
*1278 FILLER_0_26_81
*1279 FILLER_0_26_93
*1280 FILLER_0_27_104
*1281 FILLER_0_27_113
*1282 FILLER_0_27_122
*1283 FILLER_0_27_134
*1284 FILLER_0_27_143
*1285 FILLER_0_27_147
*1286 FILLER_0_27_153
*1287 FILLER_0_27_157
*1288 FILLER_0_27_165
*1289 FILLER_0_27_176
*1290 FILLER_0_27_196
*1291 FILLER_0_27_204
*1292 FILLER_0_27_217
*1293 FILLER_0_27_225
*1294 FILLER_0_27_237
*1295 FILLER_0_27_251
*1296 FILLER_0_27_260
*1297 FILLER_0_27_272
*1298 FILLER_0_27_290
*1299 FILLER_0_27_3
*1300 FILLER_0_27_302
*1301 FILLER_0_27_306
*1302 FILLER_0_27_316
*1303 FILLER_0_27_33
*1304 FILLER_0_27_334
*1305 FILLER_0_27_57
*1306 FILLER_0_27_7
*1307 FILLER_0_27_76
*1308 FILLER_0_28_105
*1309 FILLER_0_28_111
*1310 FILLER_0_28_122
*1311 FILLER_0_28_136
*1312 FILLER_0_28_141
*1313 FILLER_0_28_15
*1314 FILLER_0_28_153
*1315 FILLER_0_28_161
*1316 FILLER_0_28_169
*1317 FILLER_0_28_177
*1318 FILLER_0_28_185
*1319 FILLER_0_28_193
*1320 FILLER_0_28_208
*1321 FILLER_0_28_220
*1322 FILLER_0_28_23
*1323 FILLER_0_28_230
*1324 FILLER_0_28_238
*1325 FILLER_0_28_265
*1326 FILLER_0_28_279
*1327 FILLER_0_28_285
*1328 FILLER_0_28_29
*1329 FILLER_0_28_3
*1330 FILLER_0_28_321
*1331 FILLER_0_28_333
*1332 FILLER_0_28_37
*1333 FILLER_0_28_42
*1334 FILLER_0_28_54
*1335 FILLER_0_28_62
*1336 FILLER_0_28_76
*1337 FILLER_0_28_83
*1338 FILLER_0_28_93
*1339 FILLER_0_29_110
*1340 FILLER_0_29_113
*1341 FILLER_0_29_138
*1342 FILLER_0_29_142
*1343 FILLER_0_29_15
*1344 FILLER_0_29_152
*1345 FILLER_0_29_160
*1346 FILLER_0_29_176
*1347 FILLER_0_29_180
*1348 FILLER_0_29_187
*1349 FILLER_0_29_19
*1350 FILLER_0_29_199
*1351 FILLER_0_29_212
*1352 FILLER_0_29_234
*1353 FILLER_0_29_255
*1354 FILLER_0_29_263
*1355 FILLER_0_29_275
*1356 FILLER_0_29_279
*1357 FILLER_0_29_3
*1358 FILLER_0_29_315
*1359 FILLER_0_29_333
*1360 FILLER_0_29_45
*1361 FILLER_0_29_53
*1362 FILLER_0_29_62
*1363 FILLER_0_29_74
*1364 FILLER_0_29_80
*1365 FILLER_0_29_89
*1366 FILLER_0_2_109
*1367 FILLER_0_2_121
*1368 FILLER_0_2_133
*1369 FILLER_0_2_139
*1370 FILLER_0_2_141
*1371 FILLER_0_2_15
*1372 FILLER_0_2_153
*1373 FILLER_0_2_165
*1374 FILLER_0_2_177
*1375 FILLER_0_2_189
*1376 FILLER_0_2_195
*1377 FILLER_0_2_197
*1378 FILLER_0_2_209
*1379 FILLER_0_2_221
*1380 FILLER_0_2_233
*1381 FILLER_0_2_245
*1382 FILLER_0_2_251
*1383 FILLER_0_2_253
*1384 FILLER_0_2_265
*1385 FILLER_0_2_27
*1386 FILLER_0_2_277
*1387 FILLER_0_2_289
*1388 FILLER_0_2_29
*1389 FILLER_0_2_3
*1390 FILLER_0_2_301
*1391 FILLER_0_2_307
*1392 FILLER_0_2_309
*1393 FILLER_0_2_321
*1394 FILLER_0_2_333
*1395 FILLER_0_2_41
*1396 FILLER_0_2_53
*1397 FILLER_0_2_65
*1398 FILLER_0_2_77
*1399 FILLER_0_2_83
*1400 FILLER_0_2_85
*1401 FILLER_0_2_97
*1402 FILLER_0_30_107
*1403 FILLER_0_30_133
*1404 FILLER_0_30_139
*1405 FILLER_0_30_15
*1406 FILLER_0_30_161
*1407 FILLER_0_30_173
*1408 FILLER_0_30_188
*1409 FILLER_0_30_193
*1410 FILLER_0_30_203
*1411 FILLER_0_30_215
*1412 FILLER_0_30_223
*1413 FILLER_0_30_231
*1414 FILLER_0_30_253
*1415 FILLER_0_30_257
*1416 FILLER_0_30_27
*1417 FILLER_0_30_279
*1418 FILLER_0_30_29
*1419 FILLER_0_30_3
*1420 FILLER_0_30_301
*1421 FILLER_0_30_315
*1422 FILLER_0_30_334
*1423 FILLER_0_30_41
*1424 FILLER_0_30_53
*1425 FILLER_0_30_73
*1426 FILLER_0_30_81
*1427 FILLER_0_30_85
*1428 FILLER_0_30_99
*1429 FILLER_0_31_110
*1430 FILLER_0_31_130
*1431 FILLER_0_31_142
*1432 FILLER_0_31_15
*1433 FILLER_0_31_150
*1434 FILLER_0_31_156
*1435 FILLER_0_31_169
*1436 FILLER_0_31_179
*1437 FILLER_0_31_187
*1438 FILLER_0_31_193
*1439 FILLER_0_31_223
*1440 FILLER_0_31_236
*1441 FILLER_0_31_242
*1442 FILLER_0_31_250
*1443 FILLER_0_31_262
*1444 FILLER_0_31_27
*1445 FILLER_0_31_274
*1446 FILLER_0_31_3
*1447 FILLER_0_31_305
*1448 FILLER_0_31_317
*1449 FILLER_0_31_329
*1450 FILLER_0_31_57
*1451 FILLER_0_31_65
*1452 FILLER_0_31_73
*1453 FILLER_0_31_98
*1454 FILLER_0_32_109
*1455 FILLER_0_32_125
*1456 FILLER_0_32_139
*1457 FILLER_0_32_141
*1458 FILLER_0_32_145
*1459 FILLER_0_32_15
*1460 FILLER_0_32_159
*1461 FILLER_0_32_165
*1462 FILLER_0_32_173
*1463 FILLER_0_32_180
*1464 FILLER_0_32_189
*1465 FILLER_0_32_195
*1466 FILLER_0_32_197
*1467 FILLER_0_32_209
*1468 FILLER_0_32_221
*1469 FILLER_0_32_233
*1470 FILLER_0_32_240
*1471 FILLER_0_32_253
*1472 FILLER_0_32_27
*1473 FILLER_0_32_276
*1474 FILLER_0_32_280
*1475 FILLER_0_32_286
*1476 FILLER_0_32_29
*1477 FILLER_0_32_295
*1478 FILLER_0_32_3
*1479 FILLER_0_32_307
*1480 FILLER_0_32_309
*1481 FILLER_0_32_316
*1482 FILLER_0_32_333
*1483 FILLER_0_32_41
*1484 FILLER_0_32_53
*1485 FILLER_0_32_57
*1486 FILLER_0_32_72
*1487 FILLER_0_32_83
*1488 FILLER_0_32_85
*1489 FILLER_0_32_89
*1490 FILLER_0_32_98
*1491 FILLER_0_33_106
*1492 FILLER_0_33_122
*1493 FILLER_0_33_131
*1494 FILLER_0_33_137
*1495 FILLER_0_33_148
*1496 FILLER_0_33_15
*1497 FILLER_0_33_156
*1498 FILLER_0_33_176
*1499 FILLER_0_33_193
*1500 FILLER_0_33_215
*1501 FILLER_0_33_223
*1502 FILLER_0_33_232
*1503 FILLER_0_33_258
*1504 FILLER_0_33_262
*1505 FILLER_0_33_27
*1506 FILLER_0_33_275
*1507 FILLER_0_33_279
*1508 FILLER_0_33_295
*1509 FILLER_0_33_3
*1510 FILLER_0_33_304
*1511 FILLER_0_33_308
*1512 FILLER_0_33_318
*1513 FILLER_0_33_330
*1514 FILLER_0_33_334
*1515 FILLER_0_33_61
*1516 FILLER_0_33_70
*1517 FILLER_0_33_82
*1518 FILLER_0_33_94
*1519 FILLER_0_34_100
*1520 FILLER_0_34_137
*1521 FILLER_0_34_141
*1522 FILLER_0_34_15
*1523 FILLER_0_34_170
*1524 FILLER_0_34_176
*1525 FILLER_0_34_180
*1526 FILLER_0_34_194
*1527 FILLER_0_34_197
*1528 FILLER_0_34_208
*1529 FILLER_0_34_216
*1530 FILLER_0_34_227
*1531 FILLER_0_34_233
*1532 FILLER_0_34_238
*1533 FILLER_0_34_249
*1534 FILLER_0_34_253
*1535 FILLER_0_34_259
*1536 FILLER_0_34_264
*1537 FILLER_0_34_27
*1538 FILLER_0_34_276
*1539 FILLER_0_34_287
*1540 FILLER_0_34_29
*1541 FILLER_0_34_3
*1542 FILLER_0_34_307
*1543 FILLER_0_34_309
*1544 FILLER_0_34_41
*1545 FILLER_0_34_53
*1546 FILLER_0_34_70
*1547 FILLER_0_34_74
*1548 FILLER_0_34_79
*1549 FILLER_0_34_83
*1550 FILLER_0_34_93
*1551 FILLER_0_35_110
*1552 FILLER_0_35_120
*1553 FILLER_0_35_132
*1554 FILLER_0_35_144
*1555 FILLER_0_35_15
*1556 FILLER_0_35_156
*1557 FILLER_0_35_178
*1558 FILLER_0_35_186
*1559 FILLER_0_35_197
*1560 FILLER_0_35_207
*1561 FILLER_0_35_221
*1562 FILLER_0_35_225
*1563 FILLER_0_35_229
*1564 FILLER_0_35_27
*1565 FILLER_0_35_270
*1566 FILLER_0_35_278
*1567 FILLER_0_35_3
*1568 FILLER_0_35_301
*1569 FILLER_0_35_324
*1570 FILLER_0_35_332
*1571 FILLER_0_35_70
*1572 FILLER_0_35_89
*1573 FILLER_0_36_105
*1574 FILLER_0_36_126
*1575 FILLER_0_36_134
*1576 FILLER_0_36_15
*1577 FILLER_0_36_160
*1578 FILLER_0_36_164
*1579 FILLER_0_36_185
*1580 FILLER_0_36_193
*1581 FILLER_0_36_216
*1582 FILLER_0_36_233
*1583 FILLER_0_36_250
*1584 FILLER_0_36_253
*1585 FILLER_0_36_265
*1586 FILLER_0_36_27
*1587 FILLER_0_36_283
*1588 FILLER_0_36_29
*1589 FILLER_0_36_291
*1590 FILLER_0_36_3
*1591 FILLER_0_36_305
*1592 FILLER_0_36_309
*1593 FILLER_0_36_313
*1594 FILLER_0_36_333
*1595 FILLER_0_36_41
*1596 FILLER_0_36_53
*1597 FILLER_0_36_72
*1598 FILLER_0_36_85
*1599 FILLER_0_36_93
*1600 FILLER_0_37_110
*1601 FILLER_0_37_120
*1602 FILLER_0_37_124
*1603 FILLER_0_37_131
*1604 FILLER_0_37_139
*1605 FILLER_0_37_145
*1606 FILLER_0_37_15
*1607 FILLER_0_37_153
*1608 FILLER_0_37_160
*1609 FILLER_0_37_164
*1610 FILLER_0_37_178
*1611 FILLER_0_37_203
*1612 FILLER_0_37_260
*1613 FILLER_0_37_27
*1614 FILLER_0_37_281
*1615 FILLER_0_37_3
*1616 FILLER_0_37_303
*1617 FILLER_0_37_321
*1618 FILLER_0_37_327
*1619 FILLER_0_37_60
*1620 FILLER_0_37_83
*1621 FILLER_0_38_105
*1622 FILLER_0_38_111
*1623 FILLER_0_38_12
*1624 FILLER_0_38_136
*1625 FILLER_0_38_161
*1626 FILLER_0_38_167
*1627 FILLER_0_38_186
*1628 FILLER_0_38_194
*1629 FILLER_0_38_20
*1630 FILLER_0_38_201
*1631 FILLER_0_38_249
*1632 FILLER_0_38_257
*1633 FILLER_0_38_268
*1634 FILLER_0_38_281
*1635 FILLER_0_38_29
*1636 FILLER_0_38_297
*1637 FILLER_0_38_3
*1638 FILLER_0_38_302
*1639 FILLER_0_38_312
*1640 FILLER_0_38_334
*1641 FILLER_0_38_38
*1642 FILLER_0_38_44
*1643 FILLER_0_38_52
*1644 FILLER_0_38_61
*1645 FILLER_0_38_7
*1646 FILLER_0_38_71
*1647 FILLER_0_38_83
*1648 FILLER_0_38_85
*1649 FILLER_0_38_89
*1650 FILLER_0_38_93
*1651 FILLER_0_3_105
*1652 FILLER_0_3_111
*1653 FILLER_0_3_113
*1654 FILLER_0_3_125
*1655 FILLER_0_3_137
*1656 FILLER_0_3_149
*1657 FILLER_0_3_15
*1658 FILLER_0_3_161
*1659 FILLER_0_3_167
*1660 FILLER_0_3_169
*1661 FILLER_0_3_181
*1662 FILLER_0_3_193
*1663 FILLER_0_3_205
*1664 FILLER_0_3_217
*1665 FILLER_0_3_223
*1666 FILLER_0_3_225
*1667 FILLER_0_3_237
*1668 FILLER_0_3_249
*1669 FILLER_0_3_261
*1670 FILLER_0_3_27
*1671 FILLER_0_3_273
*1672 FILLER_0_3_279
*1673 FILLER_0_3_281