*SPEF "ieee 1481-1999"
*DESIGN "tt_um_calculator_muehlbb"
*DATE "11:11:11 Fri 11 11, 1111"
*VENDOR "OpenRCX"
*PROGRAM "Parallel Extraction"
*VERSION "1.0"
*DESIGN_FLOW "NAME_SCOPE LOCAL" "PIN_CAP NONE"
*DIVIDER /
*DELIMITER :
*BUS_DELIMITER []
*T_UNIT 1 NS
*C_UNIT 1 PF
*R_UNIT 1 OHM
*L_UNIT 1 HENRY

*NAME_MAP
*3 clk
*4 ena
*5 rst_n
*6 ui_in[0]
*7 ui_in[1]
*8 ui_in[2]
*9 ui_in[3]
*10 ui_in[4]
*11 ui_in[5]
*12 ui_in[6]
*13 ui_in[7]
*14 uio_in[0]
*15 uio_in[1]
*16 uio_in[2]
*17 uio_in[3]
*18 uio_in[4]
*19 uio_in[5]
*20 uio_in[6]
*21 uio_in[7]
*22 uio_oe[0]
*23 uio_oe[1]
*24 uio_oe[2]
*25 uio_oe[3]
*26 uio_oe[4]
*27 uio_oe[5]
*28 uio_oe[6]
*29 uio_oe[7]
*30 uio_out[0]
*31 uio_out[1]
*32 uio_out[2]
*33 uio_out[3]
*34 uio_out[4]
*35 uio_out[5]
*36 uio_out[6]
*37 uio_out[7]
*38 uo_out[0]
*39 uo_out[1]
*40 uo_out[2]
*41 uo_out[3]
*42 uo_out[4]
*43 uo_out[5]
*44 uo_out[6]
*45 uo_out[7]
*46 _0004_
*47 _0005_
*48 _0006_
*49 _0007_
*50 _0008_
*51 _0009_
*52 _0010_
*53 _0011_
*54 _0012_
*55 _0013_
*56 _0014_
*57 _0015_
*58 _0016_
*59 _0017_
*60 _0018_
*61 _0019_
*62 _0020_
*63 _0021_
*64 _0022_
*65 _0023_
*66 _0024_
*67 _0025_
*68 _0026_
*69 _0027_
*70 _0028_
*71 _0029_
*72 _0030_
*73 _0031_
*74 _0032_
*75 _0033_
*76 _0034_
*77 _0035_
*78 _0036_
*79 _0037_
*80 _0038_
*81 _0039_
*82 _0040_
*83 _0041_
*84 _0042_
*85 _0043_
*86 _0044_
*87 _0045_
*88 _0046_
*89 _0047_
*90 _0048_
*91 _0049_
*92 _0050_
*93 _0051_
*94 _0052_
*95 _0053_
*96 _0054_
*97 _0055_
*98 _0056_
*99 _0057_
*100 _0058_
*101 _0059_
*102 _0060_
*103 _0061_
*104 _0062_
*105 _0063_
*106 _0064_
*107 _0065_
*108 _0066_
*109 _0067_
*110 _0068_
*111 _0069_
*112 _0070_
*113 _0071_
*114 _0072_
*115 _0073_
*116 _0074_
*117 _0075_
*118 _0076_
*119 _0077_
*120 _0078_
*121 _0079_
*122 _0080_
*123 _0081_
*124 _0082_
*125 _0083_
*126 _0084_
*127 _0085_
*128 _0086_
*129 _0087_
*130 _0088_
*131 _0089_
*132 _0090_
*133 _0091_
*134 _0092_
*135 _0093_
*136 _0094_
*137 _0095_
*138 _0096_
*139 _0097_
*140 _0098_
*141 _0099_
*142 _0100_
*143 _0101_
*144 _0102_
*145 _0103_
*146 _0104_
*147 _0105_
*148 _0106_
*149 _0107_
*150 _0108_
*151 _0109_
*152 _0110_
*153 _0111_
*154 _0112_
*155 _0113_
*156 _0114_
*157 _0115_
*158 _0116_
*159 _0117_
*160 _0118_
*161 _0119_
*162 _0120_
*163 _0121_
*164 _0122_
*165 _0123_
*166 _0124_
*167 _0125_
*168 _0126_
*169 _0127_
*170 _0128_
*171 _0129_
*172 _0130_
*173 _0131_
*174 _0132_
*175 _0133_
*176 _0134_
*177 _0135_
*178 _0136_
*179 _0137_
*180 _0138_
*181 _0139_
*182 _0140_
*183 _0141_
*184 _0142_
*185 _0143_
*186 _0144_
*187 _0145_
*188 _0146_
*189 _0147_
*190 _0148_
*191 _0149_
*192 _0150_
*193 _0151_
*194 _0152_
*195 _0153_
*196 _0154_
*197 _0155_
*198 _0156_
*199 _0157_
*200 _0158_
*201 _0159_
*202 _0160_
*203 _0161_
*204 _0162_
*205 _0163_
*206 _0164_
*207 _0165_
*208 _0166_
*209 _0167_
*210 _0168_
*211 _0169_
*212 _0170_
*213 _0171_
*214 _0172_
*215 _0173_
*216 _0174_
*217 _0175_
*218 _0176_
*219 _0177_
*220 _0178_
*221 _0179_
*222 _0180_
*223 _0181_
*224 _0182_
*225 _0183_
*226 _0184_
*227 _0185_
*228 _0186_
*229 _0187_
*230 _0188_
*231 _0189_
*232 _0190_
*233 _0191_
*234 _0192_
*235 _0193_
*236 _0194_
*237 _0195_
*238 _0196_
*239 _0197_
*240 _0198_
*241 _0199_
*242 _0200_
*243 _0201_
*244 _0202_
*245 _0203_
*246 _0204_
*247 _0205_
*248 _0206_
*249 _0207_
*250 _0208_
*251 _0209_
*252 _0210_
*253 _0211_
*254 _0212_
*255 _0213_
*256 _0214_
*257 _0215_
*258 _0216_
*259 _0217_
*260 _0218_
*261 _0219_
*262 _0220_
*263 _0221_
*264 _0222_
*265 _0223_
*266 _0224_
*267 _0225_
*268 _0226_
*269 _0227_
*270 _0228_
*271 _0229_
*272 _0230_
*273 _0231_
*274 _0232_
*275 _0233_
*276 _0234_
*277 _0235_
*278 _0236_
*279 _0237_
*280 _0238_
*281 _0239_
*282 _0240_
*283 _0241_
*284 _0242_
*285 _0243_
*286 _0244_
*287 _0245_
*288 _0246_
*289 _0247_
*290 _0248_
*291 _0249_
*292 _0250_
*293 _0251_
*294 _0252_
*295 _0253_
*296 _0254_
*297 _0255_
*298 _0256_
*299 _0257_
*300 _0258_
*301 _0259_
*302 _0260_
*303 _0261_
*304 _0262_
*305 _0263_
*306 _0264_
*307 _0265_
*308 _0266_
*309 _0267_
*310 _0268_
*311 _0269_
*312 _0270_
*313 _0271_
*314 _0272_
*315 _0273_
*316 _0274_
*317 _0275_
*318 _0276_
*319 _0277_
*320 _0278_
*321 _0279_
*322 _0280_
*323 _0281_
*324 _0282_
*325 _0283_
*326 _0284_
*327 _0285_
*328 _0286_
*329 _0287_
*330 _0288_
*331 _0289_
*332 _0290_
*333 _0291_
*334 _0292_
*335 _0293_
*336 _0294_
*337 _0295_
*338 _0296_
*339 _0297_
*340 _0298_
*341 _0299_
*342 _0300_
*343 _0301_
*344 _0302_
*345 _0303_
*346 _0304_
*347 _0305_
*348 _0306_
*349 _0307_
*350 _0308_
*351 _0309_
*352 _0310_
*353 _0311_
*354 _0312_
*355 _0313_
*356 _0314_
*357 _0315_
*358 _0316_
*359 _0317_
*360 _0318_
*361 _0319_
*362 _0320_
*363 _0321_
*364 _0322_
*365 _0323_
*366 _0324_
*367 _0325_
*368 _0326_
*369 _0327_
*370 _0328_
*371 _0329_
*372 _0330_
*373 _0331_
*374 _0332_
*375 _0333_
*376 _0334_
*377 _0335_
*378 _0336_
*379 _0337_
*380 _0338_
*381 _0339_
*382 _0340_
*383 _0341_
*384 _0342_
*385 _0343_
*386 _0344_
*387 _0345_
*388 _0346_
*389 _0347_
*390 _0348_
*391 _0349_
*392 _0350_
*393 _0351_
*394 _0352_
*395 _0353_
*396 _0354_
*397 _0355_
*398 _0356_
*399 _0357_
*400 _0358_
*401 _0359_
*402 _0360_
*403 _0361_
*404 _0362_
*405 _0363_
*406 _0364_
*407 _0365_
*408 _0366_
*409 _0367_
*410 _0368_
*411 _0369_
*412 _0370_
*413 _0371_
*414 _0372_
*415 _0373_
*416 _0374_
*417 _0375_
*418 _0376_
*419 _0377_
*420 _0378_
*421 _0379_
*422 _0380_
*423 _0381_
*424 _0382_
*425 _0383_
*426 _0384_
*427 _0385_
*428 _0386_
*429 _0387_
*430 _0388_
*431 _0389_
*432 _0390_
*433 _0391_
*434 _0392_
*435 _0393_
*436 _0394_
*437 _0395_
*438 _0396_
*439 _0397_
*440 _0398_
*441 _0399_
*442 _0400_
*443 _0401_
*444 _0402_
*445 _0403_
*446 _0404_
*447 _0405_
*448 _0406_
*449 _0407_
*450 _0408_
*451 _0409_
*452 _0410_
*453 _0411_
*454 _0412_
*455 _0413_
*456 _0414_
*457 _0415_
*458 _0416_
*459 _0417_
*460 _0418_
*461 _0419_
*462 _0420_
*463 _0421_
*464 _0422_
*465 _0423_
*466 _0424_
*467 _0425_
*468 _0426_
*469 _0427_
*470 _0428_
*471 _0429_
*472 _0430_
*473 _0431_
*474 _0432_
*475 _0433_
*476 _0434_
*477 _0435_
*478 _0436_
*479 _0437_
*480 _0438_
*481 _0439_
*482 _0440_
*483 _0441_
*484 _0442_
*485 _0443_
*486 _0444_
*487 _0445_
*488 _0446_
*489 _0447_
*490 _0448_
*491 _0449_
*492 _0450_
*493 _0451_
*494 _0452_
*495 _0453_
*496 _0454_
*497 _0455_
*498 _0456_
*499 _0457_
*500 _0458_
*501 _0459_
*502 _0460_
*503 _0461_
*504 _0462_
*505 _0463_
*506 _0464_
*507 _0465_
*508 _0466_
*509 _0467_
*510 _0468_
*511 _0469_
*512 _0470_
*513 _0471_
*514 _0472_
*515 _0473_
*516 _0474_
*517 _0475_
*518 _0476_
*519 _0477_
*520 _0478_
*521 _0479_
*522 _0480_
*523 _0481_
*524 _0482_
*525 _0483_
*526 _0484_
*527 _0485_
*528 _0486_
*529 _0487_
*530 _0488_
*531 _0489_
*532 _0490_
*533 _0491_
*534 _0492_
*535 _0493_
*536 _0494_
*537 _0495_
*538 _0496_
*539 _0497_
*540 _0498_
*541 _0499_
*542 _0500_
*543 _0501_
*544 _0502_
*545 _0503_
*546 _0504_
*547 _0505_
*548 _0506_
*549 _0507_
*550 _0508_
*551 _0509_
*552 _0510_
*553 _0511_
*554 _0512_
*555 _0513_
*556 _0514_
*557 _0515_
*558 _0516_
*559 _0517_
*560 _0518_
*561 _0519_
*562 _0520_
*563 _0521_
*564 _0522_
*565 _0523_
*566 _0524_
*567 _0525_
*568 _0526_
*569 _0527_
*570 _0528_
*571 _0529_
*572 _0530_
*573 _0531_
*574 _0532_
*575 _0533_
*576 _0534_
*577 _0535_
*578 _0536_
*579 _0537_
*580 _0538_
*581 _0539_
*582 _0540_
*583 _0541_
*584 _0542_
*585 _0543_
*586 _0544_
*587 _0545_
*588 _0546_
*589 _0547_
*590 _0548_
*591 _0549_
*592 _0550_
*593 _0551_
*594 alu_1\.a\[0\]
*595 alu_1\.a\[10\]
*596 alu_1\.a\[11\]
*597 alu_1\.a\[12\]
*598 alu_1\.a\[13\]
*599 alu_1\.a\[14\]
*600 alu_1\.a\[15\]
*601 alu_1\.a\[1\]
*602 alu_1\.a\[2\]
*603 alu_1\.a\[3\]
*604 alu_1\.a\[4\]
*605 alu_1\.a\[5\]
*606 alu_1\.a\[6\]
*607 alu_1\.a\[7\]
*608 alu_1\.a\[8\]
*609 alu_1\.a\[9\]
*610 alu_1\.b\[0\]
*611 alu_1\.b\[10\]
*612 alu_1\.b\[11\]
*613 alu_1\.b\[12\]
*614 alu_1\.b\[13\]
*615 alu_1\.b\[14\]
*616 alu_1\.b\[15\]
*617 alu_1\.b\[1\]
*618 alu_1\.b\[2\]
*619 alu_1\.b\[3\]
*620 alu_1\.b\[4\]
*621 alu_1\.b\[5\]
*622 alu_1\.b\[6\]
*623 alu_1\.b\[7\]
*624 alu_1\.b\[8\]
*625 alu_1\.b\[9\]
*626 alu_1\.sel\[0\]
*627 alu_1\.sel\[1\]
*628 alu_1\.sel\[2\]
*629 alu_1\.sel\[3\]
*630 clknet_0_clk
*631 clknet_2_0__leaf_clk
*632 clknet_2_1__leaf_clk
*633 clknet_2_2__leaf_clk
*634 clknet_2_3__leaf_clk
*635 net1
*636 net10
*637 net11
*638 net12
*639 net13
*640 net14
*641 net15
*642 net16
*643 net17
*644 net18
*645 net19
*646 net2
*647 net20
*648 net21
*649 net22
*650 net23
*651 net3
*652 net4
*653 net5
*654 net6
*655 net7
*656 net8
*657 net9
*658 ANTENNA_1
*659 ANTENNA_2
*660 FILLER_0_0_109
*661 FILLER_0_0_113
*662 FILLER_0_0_125
*663 FILLER_0_0_137
*664 FILLER_0_0_141
*665 FILLER_0_0_15
*666 FILLER_0_0_153
*667 FILLER_0_0_165
*668 FILLER_0_0_169
*669 FILLER_0_0_181
*670 FILLER_0_0_193
*671 FILLER_0_0_197
*672 FILLER_0_0_209
*673 FILLER_0_0_221
*674 FILLER_0_0_225
*675 FILLER_0_0_237
*676 FILLER_0_0_249
*677 FILLER_0_0_253
*678 FILLER_0_0_265
*679 FILLER_0_0_27
*680 FILLER_0_0_277
*681 FILLER_0_0_281
*682 FILLER_0_0_29
*683 FILLER_0_0_293
*684 FILLER_0_0_3
*685 FILLER_0_0_305
*686 FILLER_0_0_309
*687 FILLER_0_0_321
*688 FILLER_0_0_333
*689 FILLER_0_0_41
*690 FILLER_0_0_53
*691 FILLER_0_0_57
*692 FILLER_0_0_69
*693 FILLER_0_0_81
*694 FILLER_0_0_85
*695 FILLER_0_0_97
*696 FILLER_0_10_109
*697 FILLER_0_10_121
*698 FILLER_0_10_133
*699 FILLER_0_10_139
*700 FILLER_0_10_141
*701 FILLER_0_10_15
*702 FILLER_0_10_153
*703 FILLER_0_10_165
*704 FILLER_0_10_177
*705 FILLER_0_10_189
*706 FILLER_0_10_195
*707 FILLER_0_10_197
*708 FILLER_0_10_209
*709 FILLER_0_10_221
*710 FILLER_0_10_233
*711 FILLER_0_10_245
*712 FILLER_0_10_251
*713 FILLER_0_10_253
*714 FILLER_0_10_265
*715 FILLER_0_10_27
*716 FILLER_0_10_277
*717 FILLER_0_10_289
*718 FILLER_0_10_29
*719 FILLER_0_10_3
*720 FILLER_0_10_301
*721 FILLER_0_10_307
*722 FILLER_0_10_309
*723 FILLER_0_10_321
*724 FILLER_0_10_333
*725 FILLER_0_10_41
*726 FILLER_0_10_53
*727 FILLER_0_10_65
*728 FILLER_0_10_77
*729 FILLER_0_10_83
*730 FILLER_0_10_85
*731 FILLER_0_10_97
*732 FILLER_0_11_105
*733 FILLER_0_11_111
*734 FILLER_0_11_113
*735 FILLER_0_11_125
*736 FILLER_0_11_137
*737 FILLER_0_11_149
*738 FILLER_0_11_15
*739 FILLER_0_11_161
*740 FILLER_0_11_167
*741 FILLER_0_11_169
*742 FILLER_0_11_181
*743 FILLER_0_11_193
*744 FILLER_0_11_205
*745 FILLER_0_11_217
*746 FILLER_0_11_223
*747 FILLER_0_11_225
*748 FILLER_0_11_237
*749 FILLER_0_11_249
*750 FILLER_0_11_261
*751 FILLER_0_11_27
*752 FILLER_0_11_273
*753 FILLER_0_11_279
*754 FILLER_0_11_281
*755 FILLER_0_11_293
*756 FILLER_0_11_3
*757 FILLER_0_11_305
*758 FILLER_0_11_317
*759 FILLER_0_11_329
*760 FILLER_0_11_39
*761 FILLER_0_11_51
*762 FILLER_0_11_55
*763 FILLER_0_11_57
*764 FILLER_0_11_69
*765 FILLER_0_11_81
*766 FILLER_0_11_93
*767 FILLER_0_12_109
*768 FILLER_0_12_121
*769 FILLER_0_12_133
*770 FILLER_0_12_139
*771 FILLER_0_12_141
*772 FILLER_0_12_15
*773 FILLER_0_12_153
*774 FILLER_0_12_165
*775 FILLER_0_12_177
*776 FILLER_0_12_185
*777 FILLER_0_12_190
*778 FILLER_0_12_197
*779 FILLER_0_12_209
*780 FILLER_0_12_221
*781 FILLER_0_12_246
*782 FILLER_0_12_253
*783 FILLER_0_12_265
*784 FILLER_0_12_27
*785 FILLER_0_12_277
*786 FILLER_0_12_289
*787 FILLER_0_12_29
*788 FILLER_0_12_3
*789 FILLER_0_12_301
*790 FILLER_0_12_307
*791 FILLER_0_12_309
*792 FILLER_0_12_321
*793 FILLER_0_12_333
*794 FILLER_0_12_41
*795 FILLER_0_12_53
*796 FILLER_0_12_65
*797 FILLER_0_12_77
*798 FILLER_0_12_83
*799 FILLER_0_12_85
*800 FILLER_0_12_97
*801 FILLER_0_13_105
*802 FILLER_0_13_111
*803 FILLER_0_13_113
*804 FILLER_0_13_125
*805 FILLER_0_13_137
*806 FILLER_0_13_149
*807 FILLER_0_13_15
*808 FILLER_0_13_161
*809 FILLER_0_13_167
*810 FILLER_0_13_185
*811 FILLER_0_13_202
*812 FILLER_0_13_228
*813 FILLER_0_13_236
*814 FILLER_0_13_260
*815 FILLER_0_13_27
*816 FILLER_0_13_272
*817 FILLER_0_13_281
*818 FILLER_0_13_293
*819 FILLER_0_13_3
*820 FILLER_0_13_305
*821 FILLER_0_13_317
*822 FILLER_0_13_329
*823 FILLER_0_13_39
*824 FILLER_0_13_51
*825 FILLER_0_13_55
*826 FILLER_0_13_57
*827 FILLER_0_13_69
*828 FILLER_0_13_81
*829 FILLER_0_13_93
*830 FILLER_0_14_109
*831 FILLER_0_14_129
*832 FILLER_0_14_141
*833 FILLER_0_14_15
*834 FILLER_0_14_153
*835 FILLER_0_14_173
*836 FILLER_0_14_181
*837 FILLER_0_14_186
*838 FILLER_0_14_197
*839 FILLER_0_14_218
*840 FILLER_0_14_228
*841 FILLER_0_14_240
*842 FILLER_0_14_244
*843 FILLER_0_14_253
*844 FILLER_0_14_259
*845 FILLER_0_14_27
*846 FILLER_0_14_280
*847 FILLER_0_14_29
*848 FILLER_0_14_292
*849 FILLER_0_14_3
*850 FILLER_0_14_304
*851 FILLER_0_14_309
*852 FILLER_0_14_321
*853 FILLER_0_14_333
*854 FILLER_0_14_41
*855 FILLER_0_14_53
*856 FILLER_0_14_65
*857 FILLER_0_14_77
*858 FILLER_0_14_83
*859 FILLER_0_14_85
*860 FILLER_0_14_97
*861 FILLER_0_15_106
*862 FILLER_0_15_113
*863 FILLER_0_15_125
*864 FILLER_0_15_15
*865 FILLER_0_15_169
*866 FILLER_0_15_173
*867 FILLER_0_15_180
*868 FILLER_0_15_187
*869 FILLER_0_15_194
*870 FILLER_0_15_210
*871 FILLER_0_15_222
*872 FILLER_0_15_232
*873 FILLER_0_15_248
*874 FILLER_0_15_256
*875 FILLER_0_15_264
*876 FILLER_0_15_27
*877 FILLER_0_15_279
*878 FILLER_0_15_284
*879 FILLER_0_15_296
*880 FILLER_0_15_3
*881 FILLER_0_15_308
*882 FILLER_0_15_320
*883 FILLER_0_15_332
*884 FILLER_0_15_39
*885 FILLER_0_15_51
*886 FILLER_0_15_55
*887 FILLER_0_15_57
*888 FILLER_0_15_82
*889 FILLER_0_15_94
*890 FILLER_0_16_109
*891 FILLER_0_16_119
*892 FILLER_0_16_141
*893 FILLER_0_16_15
*894 FILLER_0_16_153
*895 FILLER_0_16_167
*896 FILLER_0_16_173
*897 FILLER_0_16_189
*898 FILLER_0_16_195
*899 FILLER_0_16_202
*900 FILLER_0_16_210
*901 FILLER_0_16_214
*902 FILLER_0_16_220
*903 FILLER_0_16_232
*904 FILLER_0_16_240
*905 FILLER_0_16_246
*906 FILLER_0_16_253
*907 FILLER_0_16_265
*908 FILLER_0_16_27
*909 FILLER_0_16_29
*910 FILLER_0_16_3
*911 FILLER_0_16_302
*912 FILLER_0_16_309
*913 FILLER_0_16_321
*914 FILLER_0_16_333
*915 FILLER_0_16_41
*916 FILLER_0_16_53
*917 FILLER_0_16_65
*918 FILLER_0_16_77
*919 FILLER_0_16_83
*920 FILLER_0_16_85
*921 FILLER_0_16_97
*922 FILLER_0_17_111
*923 FILLER_0_17_113
*924 FILLER_0_17_125
*925 FILLER_0_17_143
*926 FILLER_0_17_15
*927 FILLER_0_17_155
*928 FILLER_0_17_159
*929 FILLER_0_17_167
*930 FILLER_0_17_169
*931 FILLER_0_17_173
*932 FILLER_0_17_179
*933 FILLER_0_17_187
*934 FILLER_0_17_192
*935 FILLER_0_17_200
*936 FILLER_0_17_211
*937 FILLER_0_17_223
*938 FILLER_0_17_233
*939 FILLER_0_17_245
*940 FILLER_0_17_251
*941 FILLER_0_17_255
*942 FILLER_0_17_269
*943 FILLER_0_17_27
*944 FILLER_0_17_277
*945 FILLER_0_17_284
*946 FILLER_0_17_3
*947 FILLER_0_17_316
*948 FILLER_0_17_328
*949 FILLER_0_17_334
*950 FILLER_0_17_39
*951 FILLER_0_17_47
*952 FILLER_0_17_53
*953 FILLER_0_17_83
*954 FILLER_0_17_91
*955 FILLER_0_18_105
*956 FILLER_0_18_109
*957 FILLER_0_18_130
*958 FILLER_0_18_138
*959 FILLER_0_18_15
*960 FILLER_0_18_150
*961 FILLER_0_18_164
*962 FILLER_0_18_172
*963 FILLER_0_18_182
*964 FILLER_0_18_194
*965 FILLER_0_18_211
*966 FILLER_0_18_225
*967 FILLER_0_18_234
*968 FILLER_0_18_243
*969 FILLER_0_18_251
*970 FILLER_0_18_262
*971 FILLER_0_18_27
*972 FILLER_0_18_270
*973 FILLER_0_18_29
*974 FILLER_0_18_291
*975 FILLER_0_18_295
*976 FILLER_0_18_3
*977 FILLER_0_18_301
*978 FILLER_0_18_307
*979 FILLER_0_18_309
*980 FILLER_0_18_321
*981 FILLER_0_18_333
*982 FILLER_0_18_41
*983 FILLER_0_18_49
*984 FILLER_0_18_61
*985 FILLER_0_18_67
*986 FILLER_0_18_72
*987 FILLER_0_18_82
*988 FILLER_0_18_94
*989 FILLER_0_19_10
*990 FILLER_0_19_100
*991 FILLER_0_19_106
*992 FILLER_0_19_113
*993 FILLER_0_19_125
*994 FILLER_0_19_129
*995 FILLER_0_19_136
*996 FILLER_0_19_148
*997 FILLER_0_19_154
*998 FILLER_0_19_162
*999 FILLER_0_19_169
*1000 FILLER_0_19_177
*1001 FILLER_0_19_190
*1002 FILLER_0_19_198
*1003 FILLER_0_19_202
*1004 FILLER_0_19_208
*1005 FILLER_0_19_217
*1006 FILLER_0_19_22
*1007 FILLER_0_19_223
*1008 FILLER_0_19_225
*1009 FILLER_0_19_241
*1010 FILLER_0_19_265
*1011 FILLER_0_19_279
*1012 FILLER_0_19_281
*1013 FILLER_0_19_293
*1014 FILLER_0_19_3
*1015 FILLER_0_19_311
*1016 FILLER_0_19_324
*1017 FILLER_0_19_332
*1018 FILLER_0_19_34
*1019 FILLER_0_19_46
*1020 FILLER_0_19_54
*1021 FILLER_0_19_64
*1022 FILLER_0_19_75
*1023 FILLER_0_19_87
*1024 FILLER_0_19_96
*1025 FILLER_0_1_105
*1026 FILLER_0_1_111
*1027 FILLER_0_1_113
*1028 FILLER_0_1_125
*1029 FILLER_0_1_137
*1030 FILLER_0_1_149
*1031 FILLER_0_1_15
*1032 FILLER_0_1_161
*1033 FILLER_0_1_167
*1034 FILLER_0_1_169
*1035 FILLER_0_1_181
*1036 FILLER_0_1_193
*1037 FILLER_0_1_205
*1038 FILLER_0_1_217
*1039 FILLER_0_1_223
*1040 FILLER_0_1_225
*1041 FILLER_0_1_237
*1042 FILLER_0_1_249
*1043 FILLER_0_1_261
*1044 FILLER_0_1_27
*1045 FILLER_0_1_273
*1046 FILLER_0_1_279
*1047 FILLER_0_1_281
*1048 FILLER_0_1_293
*1049 FILLER_0_1_3
*1050 FILLER_0_1_305
*1051 FILLER_0_1_317
*1052 FILLER_0_1_329
*1053 FILLER_0_1_39
*1054 FILLER_0_1_51
*1055 FILLER_0_1_55
*1056 FILLER_0_1_57
*1057 FILLER_0_1_69
*1058 FILLER_0_1_81
*1059 FILLER_0_1_93
*1060 FILLER_0_20_107
*1061 FILLER_0_20_124
*1062 FILLER_0_20_132
*1063 FILLER_0_20_139
*1064 FILLER_0_20_141
*1065 FILLER_0_20_155
*1066 FILLER_0_20_163
*1067 FILLER_0_20_173
*1068 FILLER_0_20_182
*1069 FILLER_0_20_19
*1070 FILLER_0_20_195
*1071 FILLER_0_20_203
*1072 FILLER_0_20_215
*1073 FILLER_0_20_227
*1074 FILLER_0_20_245
*1075 FILLER_0_20_253
*1076 FILLER_0_20_258
*1077 FILLER_0_20_264
*1078 FILLER_0_20_27
*1079 FILLER_0_20_270
*1080 FILLER_0_20_282
*1081 FILLER_0_20_29
*1082 FILLER_0_20_290
*1083 FILLER_0_20_296
*1084 FILLER_0_20_309
*1085 FILLER_0_20_317
*1086 FILLER_0_20_334
*1087 FILLER_0_20_38
*1088 FILLER_0_20_53
*1089 FILLER_0_20_65
*1090 FILLER_0_20_85
*1091 FILLER_0_20_95
*1092 FILLER_0_20_99
*1093 FILLER_0_21_109
*1094 FILLER_0_21_120
*1095 FILLER_0_21_124
*1096 FILLER_0_21_142
*1097 FILLER_0_21_146
*1098 FILLER_0_21_152
*1099 FILLER_0_21_163
*1100 FILLER_0_21_167
*1101 FILLER_0_21_17
*1102 FILLER_0_21_177
*1103 FILLER_0_21_189
*1104 FILLER_0_21_195
*1105 FILLER_0_21_203
*1106 FILLER_0_21_209
*1107 FILLER_0_21_217
*1108 FILLER_0_21_234
*1109 FILLER_0_21_246
*1110 FILLER_0_21_258
*1111 FILLER_0_21_266
*1112 FILLER_0_21_3
*1113 FILLER_0_21_302
*1114 FILLER_0_21_325
*1115 FILLER_0_21_333
*1116 FILLER_0_21_37
*1117 FILLER_0_21_41
*1118 FILLER_0_21_46
*1119 FILLER_0_21_54
*1120 FILLER_0_21_65
*1121 FILLER_0_21_85
*1122 FILLER_0_21_97
*1123 FILLER_0_22_107
*1124 FILLER_0_22_111
*1125 FILLER_0_22_119
*1126 FILLER_0_22_127
*1127 FILLER_0_22_133
*1128 FILLER_0_22_139
*1129 FILLER_0_22_141
*1130 FILLER_0_22_148
*1131 FILLER_0_22_15
*1132 FILLER_0_22_184
*1133 FILLER_0_22_195
*1134 FILLER_0_22_205
*1135 FILLER_0_22_220
*1136 FILLER_0_22_232
*1137 FILLER_0_22_249
*1138 FILLER_0_22_267
*1139 FILLER_0_22_27
*1140 FILLER_0_22_275
*1141 FILLER_0_22_279
*1142 FILLER_0_22_291
*1143 FILLER_0_22_299
*1144 FILLER_0_22_3
*1145 FILLER_0_22_309
*1146 FILLER_0_22_315
*1147 FILLER_0_22_32
*1148 FILLER_0_22_56
*1149 FILLER_0_22_64
*1150 FILLER_0_22_72
*1151 FILLER_0_22_85
*1152 FILLER_0_22_93
*1153 FILLER_0_23_107
*1154 FILLER_0_23_111
*1155 FILLER_0_23_130
*1156 FILLER_0_23_145
*1157 FILLER_0_23_153
*1158 FILLER_0_23_159
*1159 FILLER_0_23_169
*1160 FILLER_0_23_181
*1161 FILLER_0_23_190
*1162 FILLER_0_23_209
*1163 FILLER_0_23_21
*1164 FILLER_0_23_223
*1165 FILLER_0_23_228
*1166 FILLER_0_23_236
*1167 FILLER_0_23_243
*1168 FILLER_0_23_250
*1169 FILLER_0_23_262
*1170 FILLER_0_23_278
*1171 FILLER_0_23_290
*1172 FILLER_0_23_298
*1173 FILLER_0_23_3
*1174 FILLER_0_23_307
*1175 FILLER_0_23_319
*1176 FILLER_0_23_331
*1177 FILLER_0_23_40
*1178 FILLER_0_23_52
*1179 FILLER_0_23_63
*1180 FILLER_0_23_75
*1181 FILLER_0_23_79
*1182 FILLER_0_23_85
*1183 FILLER_0_23_89
*1184 FILLER_0_23_99
*1185 FILLER_0_24_11
*1186 FILLER_0_24_127
*1187 FILLER_0_24_134
*1188 FILLER_0_24_141
*1189 FILLER_0_24_153
*1190 FILLER_0_24_159
*1191 FILLER_0_24_167
*1192 FILLER_0_24_177
*1193 FILLER_0_24_181
*1194 FILLER_0_24_190
*1195 FILLER_0_24_205
*1196 FILLER_0_24_217
*1197 FILLER_0_24_229
*1198 FILLER_0_24_237
*1199 FILLER_0_24_24
*1200 FILLER_0_24_244
*1201 FILLER_0_24_253
*1202 FILLER_0_24_265
*1203 FILLER_0_24_271
*1204 FILLER_0_24_276
*1205 FILLER_0_24_284
*1206 FILLER_0_24_293
*1207 FILLER_0_24_3
*1208 FILLER_0_24_302
*1209 FILLER_0_24_309
*1210 FILLER_0_24_41
*1211 FILLER_0_24_53
*1212 FILLER_0_24_64
*1213 FILLER_0_24_7
*1214 FILLER_0_24_70
*1215 FILLER_0_24_85
*1216 FILLER_0_24_90
*1217 FILLER_0_24_94
*1218 FILLER_0_25_10
*1219 FILLER_0_25_103
*1220 FILLER_0_25_113
*1221 FILLER_0_25_119
*1222 FILLER_0_25_134
*1223 FILLER_0_25_16
*1224 FILLER_0_25_163
*1225 FILLER_0_25_167
*1226 FILLER_0_25_195
*1227 FILLER_0_25_207
*1228 FILLER_0_25_212
*1229 FILLER_0_25_225
*1230 FILLER_0_25_256
*1231 FILLER_0_25_26
*1232 FILLER_0_25_271
*1233 FILLER_0_25_279
*1234 FILLER_0_25_281
*1235 FILLER_0_25_293
*1236 FILLER_0_25_3
*1237 FILLER_0_25_309
*1238 FILLER_0_25_333
*1239 FILLER_0_25_34
*1240 FILLER_0_25_42
*1241 FILLER_0_25_52
*1242 FILLER_0_25_57
*1243 FILLER_0_25_68
*1244 FILLER_0_25_76
*1245 FILLER_0_25_87
*1246 FILLER_0_25_99
*1247 FILLER_0_26_100
*1248 FILLER_0_26_110
*1249 FILLER_0_26_124
*1250 FILLER_0_26_130
*1251 FILLER_0_26_138
*1252 FILLER_0_26_149
*1253 FILLER_0_26_161
*1254 FILLER_0_26_169
*1255 FILLER_0_26_178
*1256 FILLER_0_26_19
*1257 FILLER_0_26_190
*1258 FILLER_0_26_194
*1259 FILLER_0_26_205
*1260 FILLER_0_26_218
*1261 FILLER_0_26_229
*1262 FILLER_0_26_249
*1263 FILLER_0_26_264
*1264 FILLER_0_26_27
*1265 FILLER_0_26_272
*1266 FILLER_0_26_29
*1267 FILLER_0_26_300
*1268 FILLER_0_26_309
*1269 FILLER_0_26_322
*1270 FILLER_0_26_334
*1271 FILLER_0_26_52
*1272 FILLER_0_26_64
*1273 FILLER_0_26_76
*1274 FILLER_0_26_93
*1275 FILLER_0_27_108
*1276 FILLER_0_27_11
*1277 FILLER_0_27_117
*1278 FILLER_0_27_129
*1279 FILLER_0_27_138
*1280 FILLER_0_27_147
*1281 FILLER_0_27_15
*1282 FILLER_0_27_151
*1283 FILLER_0_27_157
*1284 FILLER_0_27_163
*1285 FILLER_0_27_182
*1286 FILLER_0_27_193
*1287 FILLER_0_27_205
*1288 FILLER_0_27_217
*1289 FILLER_0_27_223
*1290 FILLER_0_27_225
*1291 FILLER_0_27_233
*1292 FILLER_0_27_241
*1293 FILLER_0_27_251
*1294 FILLER_0_27_259
*1295 FILLER_0_27_271
*1296 FILLER_0_27_279
*1297 FILLER_0_27_281
*1298 FILLER_0_27_287
*1299 FILLER_0_27_3
*1300 FILLER_0_27_38
*1301 FILLER_0_27_44
*1302 FILLER_0_27_7
*1303 FILLER_0_27_74
*1304 FILLER_0_27_82
*1305 FILLER_0_27_89
*1306 FILLER_0_28_102
*1307 FILLER_0_28_129
*1308 FILLER_0_28_138
*1309 FILLER_0_28_141
*1310 FILLER_0_28_161
*1311 FILLER_0_28_173
*1312 FILLER_0_28_185
*1313 FILLER_0_28_195
*1314 FILLER_0_28_197
*1315 FILLER_0_28_20
*1316 FILLER_0_28_203
*1317 FILLER_0_28_213
*1318 FILLER_0_28_225
*1319 FILLER_0_28_237
*1320 FILLER_0_28_253
*1321 FILLER_0_28_261
*1322 FILLER_0_28_265
*1323 FILLER_0_28_273
*1324 FILLER_0_28_289
*1325 FILLER_0_28_29
*1326 FILLER_0_28_296
*1327 FILLER_0_28_3
*1328 FILLER_0_28_315
*1329 FILLER_0_28_320
*1330 FILLER_0_28_332
*1331 FILLER_0_28_37
*1332 FILLER_0_28_46
*1333 FILLER_0_28_58
*1334 FILLER_0_28_64
*1335 FILLER_0_28_80
*1336 FILLER_0_28_94
*1337 FILLER_0_29_108
*1338 FILLER_0_29_129
*1339 FILLER_0_29_139
*1340 FILLER_0_29_147
*1341 FILLER_0_29_15
*1342 FILLER_0_29_153
*1343 FILLER_0_29_161
*1344 FILLER_0_29_176
*1345 FILLER_0_29_184
*1346 FILLER_0_29_194
*1347 FILLER_0_29_201
*1348 FILLER_0_29_216
*1349 FILLER_0_29_237
*1350 FILLER_0_29_249
*1351 FILLER_0_29_261
*1352 FILLER_0_29_265
*1353 FILLER_0_29_27
*1354 FILLER_0_29_278
*1355 FILLER_0_29_281
*1356 FILLER_0_29_293
*1357 FILLER_0_29_297
*1358 FILLER_0_29_3
*1359 FILLER_0_29_303
*1360 FILLER_0_29_311
*1361 FILLER_0_29_41
*1362 FILLER_0_29_72
*1363 FILLER_0_29_84
*1364 FILLER_0_29_96
*1365 FILLER_0_2_109
*1366 FILLER_0_2_121
*1367 FILLER_0_2_133
*1368 FILLER_0_2_139
*1369 FILLER_0_2_141
*1370 FILLER_0_2_15
*1371 FILLER_0_2_153
*1372 FILLER_0_2_165
*1373 FILLER_0_2_177
*1374 FILLER_0_2_189
*1375 FILLER_0_2_195
*1376 FILLER_0_2_197
*1377 FILLER_0_2_209
*1378 FILLER_0_2_221
*1379 FILLER_0_2_233
*1380 FILLER_0_2_245
*1381 FILLER_0_2_251
*1382 FILLER_0_2_253
*1383 FILLER_0_2_265
*1384 FILLER_0_2_27
*1385 FILLER_0_2_277
*1386 FILLER_0_2_289
*1387 FILLER_0_2_29
*1388 FILLER_0_2_3
*1389 FILLER_0_2_301
*1390 FILLER_0_2_307
*1391 FILLER_0_2_309
*1392 FILLER_0_2_321
*1393 FILLER_0_2_333
*1394 FILLER_0_2_41
*1395 FILLER_0_2_53
*1396 FILLER_0_2_65
*1397 FILLER_0_2_77
*1398 FILLER_0_2_83
*1399 FILLER_0_2_85
*1400 FILLER_0_2_97
*1401 FILLER_0_30_123
*1402 FILLER_0_30_135
*1403 FILLER_0_30_139
*1404 FILLER_0_30_141
*1405 FILLER_0_30_149
*1406 FILLER_0_30_161
*1407 FILLER_0_30_172
*1408 FILLER_0_30_184
*1409 FILLER_0_30_188
*1410 FILLER_0_30_192
*1411 FILLER_0_30_201
*1412 FILLER_0_30_209
*1413 FILLER_0_30_21
*1414 FILLER_0_30_226
*1415 FILLER_0_30_241
*1416 FILLER_0_30_249
*1417 FILLER_0_30_265
*1418 FILLER_0_30_279
*1419 FILLER_0_30_29
*1420 FILLER_0_30_3
*1421 FILLER_0_30_307
*1422 FILLER_0_30_317
*1423 FILLER_0_30_324
*1424 FILLER_0_30_332
*1425 FILLER_0_30_42
*1426 FILLER_0_30_48
*1427 FILLER_0_30_56
*1428 FILLER_0_30_68
*1429 FILLER_0_30_82
*1430 FILLER_0_30_85
*1431 FILLER_0_30_98
*1432 FILLER_0_31_104
*1433 FILLER_0_31_113
*1434 FILLER_0_31_117
*1435 FILLER_0_31_12
*1436 FILLER_0_31_137
*1437 FILLER_0_31_160
*1438 FILLER_0_31_181
*1439 FILLER_0_31_198
*1440 FILLER_0_31_220
*1441 FILLER_0_31_225
*1442 FILLER_0_31_246
*1443 FILLER_0_31_25
*1444 FILLER_0_31_258
*1445 FILLER_0_31_271
*1446 FILLER_0_31_279
*1447 FILLER_0_31_281
*1448 FILLER_0_31_293
*1449 FILLER_0_31_3
*1450 FILLER_0_31_305
*1451 FILLER_0_31_313
*1452 FILLER_0_31_33
*1453 FILLER_0_31_37
*1454 FILLER_0_31_44
*1455 FILLER_0_31_54
*1456 FILLER_0_31_57
*1457 FILLER_0_31_65
*1458 FILLER_0_31_74
*1459 FILLER_0_31_82
*1460 FILLER_0_32_101
*1461 FILLER_0_32_128
*1462 FILLER_0_32_137
*1463 FILLER_0_32_147
*1464 FILLER_0_32_15
*1465 FILLER_0_32_162
*1466 FILLER_0_32_179
*1467 FILLER_0_32_191
*1468 FILLER_0_32_195
*1469 FILLER_0_32_197
*1470 FILLER_0_32_209
*1471 FILLER_0_32_215
*1472 FILLER_0_32_232
*1473 FILLER_0_32_27
*1474 FILLER_0_32_29
*1475 FILLER_0_32_290
*1476 FILLER_0_32_297
*1477 FILLER_0_32_3
*1478 FILLER_0_32_306
*1479 FILLER_0_32_309
*1480 FILLER_0_32_323
*1481 FILLER_0_32_37
*1482 FILLER_0_32_45
*1483 FILLER_0_32_57
*1484 FILLER_0_32_69
*1485 FILLER_0_32_81
*1486 FILLER_0_32_85
*1487 FILLER_0_32_95
*1488 FILLER_0_33_104
*1489 FILLER_0_33_113
*1490 FILLER_0_33_125
*1491 FILLER_0_33_133
*1492 FILLER_0_33_143
*1493 FILLER_0_33_155
*1494 FILLER_0_33_161
*1495 FILLER_0_33_167
*1496 FILLER_0_33_188
*1497 FILLER_0_33_217
*1498 FILLER_0_33_223
*1499 FILLER_0_33_239
*1500 FILLER_0_33_251
*1501 FILLER_0_33_259
*1502 FILLER_0_33_277
*1503 FILLER_0_33_281
*1504 FILLER_0_33_296
*1505 FILLER_0_33_3
*1506 FILLER_0_33_306
*1507 FILLER_0_33_315
*1508 FILLER_0_33_321
*1509 FILLER_0_33_333
*1510 FILLER_0_33_55
*1511 FILLER_0_33_57
*1512 FILLER_0_33_72
*1513 FILLER_0_33_79
*1514 FILLER_0_33_93
*1515 FILLER_0_34_107
*1516 FILLER_0_34_115
*1517 FILLER_0_34_135
*1518 FILLER_0_34_139
*1519 FILLER_0_34_15
*1520 FILLER_0_34_160
*1521 FILLER_0_34_170
*1522 FILLER_0_34_182
*1523 FILLER_0_34_193
*1524 FILLER_0_34_197
*1525 FILLER_0_34_205
*1526 FILLER_0_34_223
*1527 FILLER_0_34_235
*1528 FILLER_0_34_250
*1529 FILLER_0_34_27
*1530 FILLER_0_34_272
*1531 FILLER_0_34_288
*1532 FILLER_0_34_29
*1533 FILLER_0_34_3
*1534 FILLER_0_34_309
*1535 FILLER_0_34_44
*1536 FILLER_0_34_56
*1537 FILLER_0_34_68
*1538 FILLER_0_34_80
*1539 FILLER_0_34_93
*1540 FILLER_0_35_118
*1541 FILLER_0_35_135
*1542 FILLER_0_35_143
*1543 FILLER_0_35_15
*1544 FILLER_0_35_156
*1545 FILLER_0_35_223
*1546 FILLER_0_35_228
*1547 FILLER_0_35_240
*1548 FILLER_0_35_252
*1549 FILLER_0_35_259
*1550 FILLER_0_35_267
*1551 FILLER_0_35_27
*1552 FILLER_0_35_278
*1553 FILLER_0_35_293
*1554 FILLER_0_35_3
*1555 FILLER_0_35_300
*1556 FILLER_0_35_304
*1557 FILLER_0_35_313
*1558 FILLER_0_35_319
*1559 FILLER_0_35_331
*1560 FILLER_0_35_57
*1561 FILLER_0_35_79
*1562 FILLER_0_35_83
*1563 FILLER_0_36_100
*1564 FILLER_0_36_112
*1565 FILLER_0_36_130
*1566 FILLER_0_36_141
*1567 FILLER_0_36_15
*1568 FILLER_0_36_158
*1569 FILLER_0_36_170
*1570 FILLER_0_36_182
*1571 FILLER_0_36_192
*1572 FILLER_0_36_197
*1573 FILLER_0_36_224
*1574 FILLER_0_36_246
*1575 FILLER_0_36_263
*1576 FILLER_0_36_269
*1577 FILLER_0_36_27
*1578 FILLER_0_36_286
*1579 FILLER_0_36_29
*1580 FILLER_0_36_292
*1581 FILLER_0_36_3
*1582 FILLER_0_36_300
*1583 FILLER_0_36_41
*1584 FILLER_0_36_72
*1585 FILLER_0_36_88
*1586 FILLER_0_37_111
*1587 FILLER_0_37_113
*1588 FILLER_0_37_125
*1589 FILLER_0_37_137
*1590 FILLER_0_37_141
*1591 FILLER_0_37_15
*1592 FILLER_0_37_155
*1593 FILLER_0_37_161
*1594 FILLER_0_37_207
*1595 FILLER_0_37_217
*1596 FILLER_0_37_223
*1597 FILLER_0_37_225
*1598 FILLER_0_37_243
*1599 FILLER_0_37_266
*1600 FILLER_0_37_27
*1601 FILLER_0_37_276
*1602 FILLER_0_37_281
*1603 FILLER_0_37_3
*1604 FILLER_0_37_305
*1605 FILLER_0_37_319
*1606 FILLER_0_37_327
*1607 FILLER_0_37_39
*1608 FILLER_0_37_51
*1609 FILLER_0_37_55
*1610 FILLER_0_37_57
*1611 FILLER_0_37_70
*1612 FILLER_0_37_98
*1613 FILLER_0_38_113
*1614 FILLER_0_38_12
*1615 FILLER_0_38_121
*1616 FILLER_0_38_132
*1617 FILLER_0_38_148
*1618 FILLER_0_38_162
*1619 FILLER_0_38_169
*1620 FILLER_0_38_173
*1621 FILLER_0_38_181
*1622 FILLER_0_38_187
*1623 FILLER_0_38_195
*1624 FILLER_0_38_20
*1625 FILLER_0_38_201
*1626 FILLER_0_38_210
*1627 FILLER_0_38_215
*1628 FILLER_0_38_223
*1629 FILLER_0_38_225
*1630 FILLER_0_38_231
*1631 FILLER_0_38_239
*1632 FILLER_0_38_250
*1633 FILLER_0_38_262
*1634 FILLER_0_38_266
*1635 FILLER_0_38_279
*1636 FILLER_0_38_281
*1637 FILLER_0_38_289
*1638 FILLER_0_38_29
*1639 FILLER_0_38_3
*1640 FILLER_0_38_306
*1641 FILLER_0_38_312
*1642 FILLER_0_38_333
*1643 FILLER_0_38_37
*1644 FILLER_0_38_44
*1645 FILLER_0_38_51
*1646 FILLER_0_38_55
*1647 FILLER_0_38_61
*1648 FILLER_0_38_7
*1649 FILLER_0_38_73
*1650 FILLER_0_38_79
*1651 FILLER_0_38_83
*1652 FILLER_0_38_85
*1653 FILLER_0_38_89
*1654 FILLER_0_3_105
*1655 FILLER_0_3_111
*1656 FILLER_0_3_113
*1657 FILLER_0_3_125
*1658 FILLER_0_3_137
*1659 FILLER_0_3_149
*1660 FILLER_0_3_15
*1661 FILLER_0_3_161
*1662 FILLER_0_3_167
*1663 FILLER_0_3_169
*1664 FILLER_0_3_181
*1665 FILLER_0_3_193
*1666 FILLER_0_3_205
*1667 FILLER_0_3_217
*1668 FILLER_0_3_223
*1669 FILLER_0_3_225
*1670 FILLER_0_3_237
*1671 FILLER_0_3_249
*1672 FILLER_0_3_261