*SPEF "ieee 1481-1999"
*DESIGN "tt_um_ian_keypad_controller"
*DATE "19:48:34 Tuesday April 09, 2024"
*VENDOR "The OpenROAD Project"
*PROGRAM "OpenROAD"
*VERSION "0889970d1790a2617e69f253221b8bd7626e51dc"
*DESIGN_FLOW "NAME_SCOPE LOCAL" "PIN_CAP NONE"
*DIVIDER /
*DELIMITER :
*BUS_DELIMITER []
*T_UNIT 1 NS
*C_UNIT 1 PF
*R_UNIT 1 OHM
*L_UNIT 1 HENRY

*NAME_MAP
*3 clk
*4 ena
*5 rst_n
*6 ui_in[0]
*7 ui_in[1]
*8 ui_in[2]
*9 ui_in[3]
*10 ui_in[4]
*11 ui_in[5]
*12 ui_in[6]
*13 ui_in[7]
*14 uio_in[0]
*15 uio_in[1]
*16 uio_in[2]
*17 uio_in[3]
*18 uio_in[4]
*19 uio_in[5]
*20 uio_in[6]
*21 uio_in[7]
*22 net13
*23 net14
*24 net15
*25 net16
*26 net17
*27 net18
*28 net8
*29 net9
*30 uio_out[0]
*31 uio_out[1]
*32 uio_out[2]
*33 uio_out[3]
*34 uio_out[4]
*35 uio_out[5]
*36 net10
*37 net11
*38 uo_out[0]
*39 uo_out[1]
*40 uo_out[2]
*41 uo_out[3]
*42 uo_out[4]
*43 uo_out[5]
*44 uo_out[6]
*45 net12
*46 _000_
*47 _001_
*48 _002_
*49 _003_
*50 _004_
*51 _005_
*52 _006_
*53 _007_
*54 _008_
*55 _009_
*56 _010_
*57 _011_
*58 _012_
*59 _013_
*60 _014_
*61 _015_
*62 _016_
*63 _017_
*64 _018_
*65 _019_
*66 _020_
*67 _021_
*68 _022_
*69 _023_
*70 _024_
*71 _025_
*72 _026_
*73 _027_
*74 _028_
*75 _029_
*76 _030_
*77 _031_
*78 _032_
*79 _033_
*80 _034_
*81 _035_
*82 _036_
*83 _037_
*84 _038_
*85 _039_
*86 _040_
*87 _041_
*88 _042_
*89 _043_
*90 _044_
*91 _045_
*92 _046_
*93 _047_
*94 _048_
*95 _049_
*96 _050_
*97 _051_
*98 _052_
*99 _053_
*100 _054_
*101 _055_
*102 _056_
*103 _057_
*104 _058_
*105 _059_
*106 _060_
*107 _061_
*108 _062_
*109 _063_
*110 _064_
*111 _065_
*112 _066_
*113 _067_
*114 _068_
*115 _069_
*116 _070_
*117 _071_
*118 _072_
*119 _073_
*120 _074_
*121 _075_
*122 _076_
*123 _077_
*124 _078_
*125 _079_
*126 _080_
*127 _081_
*128 _082_
*129 _083_
*130 _084_
*131 _085_
*132 _086_
*133 _087_
*134 _088_
*135 _089_
*136 _090_
*137 _091_
*138 _092_
*139 _093_
*140 _094_
*141 _095_
*142 _096_
*143 _097_
*144 _098_
*145 _099_
*146 _100_
*147 _101_
*148 _102_
*149 _103_
*150 _104_
*151 _105_
*152 _106_
*153 _107_
*154 _108_
*155 _109_
*156 _110_
*157 _111_
*158 _112_
*159 _113_
*160 _114_
*161 _115_
*162 _116_
*163 _117_
*164 _118_
*165 _119_
*166 _120_
*167 _121_
*168 _122_
*169 _123_
*170 _124_
*171 _125_
*172 _126_
*173 _127_
*174 _128_
*175 _129_
*176 _130_
*177 _131_
*178 _132_
*179 _133_
*180 _134_
*181 _135_
*182 _136_
*183 _137_
*184 _138_
*185 _139_
*186 _140_
*187 clknet_0_clk
*188 clknet_2_0__leaf_clk
*189 clknet_2_1__leaf_clk
*190 clknet_2_2__leaf_clk
*191 clknet_2_3__leaf_clk
*192 keypad\.col_update_count\[0\]
*193 keypad\.col_update_count\[1\]
*194 keypad\.col_update_count\[2\]
*195 keypad\.col_update_count\[3\]
*196 keypad\.col_update_count\[4\]
*197 keypad\.debounce_row0\.button_hist\[0\]
*198 keypad\.debounce_row0\.button_hist\[1\]
*199 keypad\.debounce_row0\.button_hist\[2\]
*200 keypad\.debounce_row0\.button_hist\[3\]
*201 keypad\.debounce_row0\.button_hist\[4\]
*202 keypad\.debounce_row0\.button_hist\[5\]
*203 keypad\.debounce_row0\.button_hist\[6\]
*204 keypad\.debounce_row0\.button_hist\[7\]
*205 keypad\.debounce_row0\.debounced
*206 keypad\.debounce_row1\.button_hist\[0\]
*207 keypad\.debounce_row1\.button_hist\[1\]
*208 keypad\.debounce_row1\.button_hist\[2\]
*209 keypad\.debounce_row1\.button_hist\[3\]
*210 keypad\.debounce_row1\.button_hist\[4\]
*211 keypad\.debounce_row1\.button_hist\[5\]
*212 keypad\.debounce_row1\.button_hist\[6\]
*213 keypad\.debounce_row1\.button_hist\[7\]
*214 keypad\.debounce_row1\.debounced
*215 keypad\.debounce_row2\.button_hist\[0\]
*216 keypad\.debounce_row2\.button_hist\[1\]
*217 keypad\.debounce_row2\.button_hist\[2\]
*218 keypad\.debounce_row2\.button_hist\[3\]
*219 keypad\.debounce_row2\.button_hist\[4\]
*220 keypad\.debounce_row2\.button_hist\[5\]
*221 keypad\.debounce_row2\.button_hist\[6\]
*222 keypad\.debounce_row2\.button_hist\[7\]
*223 keypad\.debounce_row2\.debounced
*224 keypad\.debounce_row3\.button_hist\[0\]
*225 keypad\.debounce_row3\.button_hist\[1\]
*226 keypad\.debounce_row3\.button_hist\[2\]
*227 keypad\.debounce_row3\.button_hist\[3\]
*228 keypad\.debounce_row3\.button_hist\[4\]
*229 keypad\.debounce_row3\.button_hist\[5\]
*230 keypad\.debounce_row3\.button_hist\[6\]
*231 keypad\.debounce_row3\.button_hist\[7\]
*232 keypad\.debounce_row3\.debounced
*233 net1
*234 net19
*235 net2
*236 net20
*237 net21
*238 net22
*239 net23
*240 net24
*241 net25
*242 net26
*243 net27
*244 net28
*245 net29
*246 net3
*247 net30
*248 net31
*249 net32
*250 net33
*251 net34
*252 net35
*253 net36
*254 net37
*255 net38
*256 net39
*257 net4
*258 net40
*259 net41
*260 net42
*261 net43
*262 net44
*263 net45
*264 net46
*265 net47
*266 net48
*267 net49
*268 net5
*269 net50
*270 net51
*271 net52
*272 net53
*273 net54
*274 net55
*275 net56
*276 net57
*277 net6
*278 net7
*279 FILLER_0_0_109
*280 FILLER_0_0_113
*281 FILLER_0_0_125
*282 FILLER_0_0_137
*283 FILLER_0_0_141
*284 FILLER_0_0_15
*285 FILLER_0_0_153
*286 FILLER_0_0_165
*287 FILLER_0_0_169
*288 FILLER_0_0_181
*289 FILLER_0_0_193
*290 FILLER_0_0_197
*291 FILLER_0_0_209
*292 FILLER_0_0_221
*293 FILLER_0_0_225
*294 FILLER_0_0_237
*295 FILLER_0_0_249
*296 FILLER_0_0_253
*297 FILLER_0_0_265
*298 FILLER_0_0_27
*299 FILLER_0_0_277
*300 FILLER_0_0_281
*301 FILLER_0_0_29
*302 FILLER_0_0_293
*303 FILLER_0_0_3
*304 FILLER_0_0_305
*305 FILLER_0_0_309
*306 FILLER_0_0_321
*307 FILLER_0_0_333
*308 FILLER_0_0_41
*309 FILLER_0_0_53
*310 FILLER_0_0_57
*311 FILLER_0_0_69
*312 FILLER_0_0_81
*313 FILLER_0_0_85
*314 FILLER_0_0_97
*315 FILLER_0_10_109
*316 FILLER_0_10_121
*317 FILLER_0_10_133
*318 FILLER_0_10_139
*319 FILLER_0_10_141
*320 FILLER_0_10_15
*321 FILLER_0_10_153
*322 FILLER_0_10_165
*323 FILLER_0_10_177
*324 FILLER_0_10_189
*325 FILLER_0_10_195
*326 FILLER_0_10_197
*327 FILLER_0_10_209
*328 FILLER_0_10_221
*329 FILLER_0_10_233
*330 FILLER_0_10_245
*331 FILLER_0_10_251
*332 FILLER_0_10_253
*333 FILLER_0_10_265
*334 FILLER_0_10_27
*335 FILLER_0_10_277
*336 FILLER_0_10_289
*337 FILLER_0_10_29
*338 FILLER_0_10_3
*339 FILLER_0_10_301
*340 FILLER_0_10_307
*341 FILLER_0_10_309
*342 FILLER_0_10_321
*343 FILLER_0_10_333
*344 FILLER_0_10_41
*345 FILLER_0_10_53
*346 FILLER_0_10_65
*347 FILLER_0_10_77
*348 FILLER_0_10_83
*349 FILLER_0_10_85
*350 FILLER_0_10_97
*351 FILLER_0_11_105
*352 FILLER_0_11_111
*353 FILLER_0_11_113
*354 FILLER_0_11_125
*355 FILLER_0_11_137
*356 FILLER_0_11_149
*357 FILLER_0_11_15
*358 FILLER_0_11_161
*359 FILLER_0_11_167
*360 FILLER_0_11_169
*361 FILLER_0_11_181
*362 FILLER_0_11_193
*363 FILLER_0_11_205
*364 FILLER_0_11_217
*365 FILLER_0_11_223
*366 FILLER_0_11_225
*367 FILLER_0_11_237
*368 FILLER_0_11_249
*369 FILLER_0_11_261
*370 FILLER_0_11_27
*371 FILLER_0_11_273
*372 FILLER_0_11_279
*373 FILLER_0_11_281
*374 FILLER_0_11_293
*375 FILLER_0_11_3
*376 FILLER_0_11_305
*377 FILLER_0_11_317
*378 FILLER_0_11_329
*379 FILLER_0_11_39
*380 FILLER_0_11_51
*381 FILLER_0_11_55
*382 FILLER_0_11_57
*383 FILLER_0_11_69
*384 FILLER_0_11_81
*385 FILLER_0_11_93
*386 FILLER_0_12_109
*387 FILLER_0_12_121
*388 FILLER_0_12_133
*389 FILLER_0_12_139
*390 FILLER_0_12_141
*391 FILLER_0_12_15
*392 FILLER_0_12_153
*393 FILLER_0_12_165
*394 FILLER_0_12_177
*395 FILLER_0_12_189
*396 FILLER_0_12_195
*397 FILLER_0_12_197
*398 FILLER_0_12_209
*399 FILLER_0_12_221
*400 FILLER_0_12_233
*401 FILLER_0_12_245
*402 FILLER_0_12_251
*403 FILLER_0_12_253
*404 FILLER_0_12_265
*405 FILLER_0_12_27
*406 FILLER_0_12_277
*407 FILLER_0_12_289
*408 FILLER_0_12_29
*409 FILLER_0_12_3
*410 FILLER_0_12_301
*411 FILLER_0_12_307
*412 FILLER_0_12_309
*413 FILLER_0_12_321
*414 FILLER_0_12_333
*415 FILLER_0_12_41
*416 FILLER_0_12_53
*417 FILLER_0_12_65
*418 FILLER_0_12_77
*419 FILLER_0_12_83
*420 FILLER_0_12_85
*421 FILLER_0_12_97
*422 FILLER_0_13_105
*423 FILLER_0_13_111
*424 FILLER_0_13_113
*425 FILLER_0_13_125
*426 FILLER_0_13_137
*427 FILLER_0_13_149
*428 FILLER_0_13_15
*429 FILLER_0_13_161
*430 FILLER_0_13_167
*431 FILLER_0_13_169
*432 FILLER_0_13_181
*433 FILLER_0_13_193
*434 FILLER_0_13_205
*435 FILLER_0_13_217
*436 FILLER_0_13_223
*437 FILLER_0_13_225
*438 FILLER_0_13_237
*439 FILLER_0_13_249
*440 FILLER_0_13_261
*441 FILLER_0_13_27
*442 FILLER_0_13_273
*443 FILLER_0_13_279
*444 FILLER_0_13_281
*445 FILLER_0_13_293
*446 FILLER_0_13_3
*447 FILLER_0_13_305
*448 FILLER_0_13_317
*449 FILLER_0_13_329
*450 FILLER_0_13_39
*451 FILLER_0_13_51
*452 FILLER_0_13_55
*453 FILLER_0_13_57
*454 FILLER_0_13_69
*455 FILLER_0_13_81
*456 FILLER_0_13_93
*457 FILLER_0_14_109
*458 FILLER_0_14_121
*459 FILLER_0_14_133
*460 FILLER_0_14_139
*461 FILLER_0_14_141
*462 FILLER_0_14_15
*463 FILLER_0_14_153
*464 FILLER_0_14_165
*465 FILLER_0_14_177
*466 FILLER_0_14_189
*467 FILLER_0_14_195
*468 FILLER_0_14_197
*469 FILLER_0_14_209
*470 FILLER_0_14_221
*471 FILLER_0_14_233
*472 FILLER_0_14_245
*473 FILLER_0_14_251
*474 FILLER_0_14_253
*475 FILLER_0_14_265
*476 FILLER_0_14_27
*477 FILLER_0_14_277
*478 FILLER_0_14_289
*479 FILLER_0_14_29
*480 FILLER_0_14_3
*481 FILLER_0_14_301
*482 FILLER_0_14_307
*483 FILLER_0_14_309
*484 FILLER_0_14_321
*485 FILLER_0_14_333
*486 FILLER_0_14_41
*487 FILLER_0_14_53
*488 FILLER_0_14_65
*489 FILLER_0_14_77
*490 FILLER_0_14_83
*491 FILLER_0_14_85
*492 FILLER_0_14_97
*493 FILLER_0_15_105
*494 FILLER_0_15_111
*495 FILLER_0_15_113
*496 FILLER_0_15_125
*497 FILLER_0_15_137
*498 FILLER_0_15_149
*499 FILLER_0_15_15
*500 FILLER_0_15_161
*501 FILLER_0_15_167
*502 FILLER_0_15_169
*503 FILLER_0_15_181
*504 FILLER_0_15_193
*505 FILLER_0_15_205
*506 FILLER_0_15_217
*507 FILLER_0_15_223
*508 FILLER_0_15_225
*509 FILLER_0_15_237
*510 FILLER_0_15_249
*511 FILLER_0_15_261
*512 FILLER_0_15_27
*513 FILLER_0_15_273
*514 FILLER_0_15_279
*515 FILLER_0_15_281
*516 FILLER_0_15_293
*517 FILLER_0_15_3
*518 FILLER_0_15_305
*519 FILLER_0_15_317
*520 FILLER_0_15_329
*521 FILLER_0_15_39
*522 FILLER_0_15_51
*523 FILLER_0_15_55
*524 FILLER_0_15_57
*525 FILLER_0_15_69
*526 FILLER_0_15_81
*527 FILLER_0_15_93
*528 FILLER_0_16_109
*529 FILLER_0_16_121
*530 FILLER_0_16_133
*531 FILLER_0_16_139
*532 FILLER_0_16_141
*533 FILLER_0_16_15
*534 FILLER_0_16_153
*535 FILLER_0_16_165
*536 FILLER_0_16_177
*537 FILLER_0_16_189
*538 FILLER_0_16_195
*539 FILLER_0_16_197
*540 FILLER_0_16_209
*541 FILLER_0_16_221
*542 FILLER_0_16_233
*543 FILLER_0_16_245
*544 FILLER_0_16_251
*545 FILLER_0_16_253
*546 FILLER_0_16_265
*547 FILLER_0_16_27
*548 FILLER_0_16_277
*549 FILLER_0_16_289
*550 FILLER_0_16_29
*551 FILLER_0_16_3
*552 FILLER_0_16_301
*553 FILLER_0_16_307
*554 FILLER_0_16_309
*555 FILLER_0_16_321
*556 FILLER_0_16_333
*557 FILLER_0_16_41
*558 FILLER_0_16_53
*559 FILLER_0_16_65
*560 FILLER_0_16_77
*561 FILLER_0_16_83
*562 FILLER_0_16_85
*563 FILLER_0_16_97
*564 FILLER_0_17_105
*565 FILLER_0_17_111
*566 FILLER_0_17_113
*567 FILLER_0_17_125
*568 FILLER_0_17_137
*569 FILLER_0_17_149
*570 FILLER_0_17_15
*571 FILLER_0_17_161
*572 FILLER_0_17_167
*573 FILLER_0_17_169
*574 FILLER_0_17_181
*575 FILLER_0_17_193
*576 FILLER_0_17_205
*577 FILLER_0_17_217
*578 FILLER_0_17_223
*579 FILLER_0_17_225
*580 FILLER_0_17_237
*581 FILLER_0_17_249
*582 FILLER_0_17_261
*583 FILLER_0_17_27
*584 FILLER_0_17_273
*585 FILLER_0_17_279
*586 FILLER_0_17_281
*587 FILLER_0_17_293
*588 FILLER_0_17_3
*589 FILLER_0_17_305
*590 FILLER_0_17_317
*591 FILLER_0_17_329
*592 FILLER_0_17_39
*593 FILLER_0_17_51
*594 FILLER_0_17_55
*595 FILLER_0_17_57
*596 FILLER_0_17_69
*597 FILLER_0_17_81
*598 FILLER_0_17_93
*599 FILLER_0_18_109
*600 FILLER_0_18_121
*601 FILLER_0_18_133
*602 FILLER_0_18_139
*603 FILLER_0_18_141
*604 FILLER_0_18_15
*605 FILLER_0_18_153
*606 FILLER_0_18_165
*607 FILLER_0_18_177
*608 FILLER_0_18_189
*609 FILLER_0_18_195
*610 FILLER_0_18_197
*611 FILLER_0_18_209
*612 FILLER_0_18_221
*613 FILLER_0_18_233
*614 FILLER_0_18_245
*615 FILLER_0_18_251
*616 FILLER_0_18_253
*617 FILLER_0_18_265
*618 FILLER_0_18_27
*619 FILLER_0_18_277
*620 FILLER_0_18_289
*621 FILLER_0_18_29
*622 FILLER_0_18_3
*623 FILLER_0_18_301
*624 FILLER_0_18_307
*625 FILLER_0_18_309
*626 FILLER_0_18_321
*627 FILLER_0_18_333
*628 FILLER_0_18_41
*629 FILLER_0_18_53
*630 FILLER_0_18_65
*631 FILLER_0_18_77
*632 FILLER_0_18_83
*633 FILLER_0_18_85
*634 FILLER_0_18_97
*635 FILLER_0_19_105
*636 FILLER_0_19_111
*637 FILLER_0_19_113
*638 FILLER_0_19_125
*639 FILLER_0_19_137
*640 FILLER_0_19_149
*641 FILLER_0_19_15
*642 FILLER_0_19_161
*643 FILLER_0_19_167
*644 FILLER_0_19_169
*645 FILLER_0_19_181
*646 FILLER_0_19_193
*647 FILLER_0_19_205
*648 FILLER_0_19_217
*649 FILLER_0_19_223
*650 FILLER_0_19_225
*651 FILLER_0_19_237
*652 FILLER_0_19_249
*653 FILLER_0_19_261
*654 FILLER_0_19_27
*655 FILLER_0_19_273
*656 FILLER_0_19_279
*657 FILLER_0_19_281
*658 FILLER_0_19_293
*659 FILLER_0_19_3
*660 FILLER_0_19_305
*661 FILLER_0_19_317
*662 FILLER_0_19_329
*663 FILLER_0_19_39
*664 FILLER_0_19_51
*665 FILLER_0_19_55
*666 FILLER_0_19_57
*667 FILLER_0_19_69
*668 FILLER_0_19_81
*669 FILLER_0_19_93
*670 FILLER_0_1_105
*671 FILLER_0_1_111
*672 FILLER_0_1_113
*673 FILLER_0_1_125
*674 FILLER_0_1_137
*675 FILLER_0_1_149
*676 FILLER_0_1_15
*677 FILLER_0_1_161
*678 FILLER_0_1_167
*679 FILLER_0_1_169
*680 FILLER_0_1_181
*681 FILLER_0_1_193
*682 FILLER_0_1_205
*683 FILLER_0_1_217
*684 FILLER_0_1_223
*685 FILLER_0_1_225
*686 FILLER_0_1_237
*687 FILLER_0_1_249
*688 FILLER_0_1_261
*689 FILLER_0_1_27
*690 FILLER_0_1_273
*691 FILLER_0_1_279
*692 FILLER_0_1_281
*693 FILLER_0_1_293
*694 FILLER_0_1_3
*695 FILLER_0_1_305
*696 FILLER_0_1_317
*697 FILLER_0_1_329
*698 FILLER_0_1_39
*699 FILLER_0_1_51
*700 FILLER_0_1_55
*701 FILLER_0_1_57
*702 FILLER_0_1_69
*703 FILLER_0_1_81
*704 FILLER_0_1_93
*705 FILLER_0_20_109
*706 FILLER_0_20_121
*707 FILLER_0_20_133
*708 FILLER_0_20_139
*709 FILLER_0_20_141
*710 FILLER_0_20_15
*711 FILLER_0_20_153
*712 FILLER_0_20_165
*713 FILLER_0_20_177
*714 FILLER_0_20_189
*715 FILLER_0_20_195
*716 FILLER_0_20_197
*717 FILLER_0_20_209
*718 FILLER_0_20_221
*719 FILLER_0_20_233
*720 FILLER_0_20_245
*721 FILLER_0_20_251
*722 FILLER_0_20_253
*723 FILLER_0_20_265
*724 FILLER_0_20_27
*725 FILLER_0_20_277
*726 FILLER_0_20_289
*727 FILLER_0_20_29
*728 FILLER_0_20_3
*729 FILLER_0_20_301
*730 FILLER_0_20_307
*731 FILLER_0_20_309
*732 FILLER_0_20_321
*733 FILLER_0_20_333
*734 FILLER_0_20_41
*735 FILLER_0_20_53
*736 FILLER_0_20_65
*737 FILLER_0_20_77
*738 FILLER_0_20_83
*739 FILLER_0_20_85
*740 FILLER_0_20_97
*741 FILLER_0_21_105
*742 FILLER_0_21_111
*743 FILLER_0_21_113
*744 FILLER_0_21_125
*745 FILLER_0_21_137
*746 FILLER_0_21_149
*747 FILLER_0_21_15
*748 FILLER_0_21_161
*749 FILLER_0_21_167
*750 FILLER_0_21_169
*751 FILLER_0_21_181
*752 FILLER_0_21_193
*753 FILLER_0_21_205
*754 FILLER_0_21_217
*755 FILLER_0_21_223
*756 FILLER_0_21_225
*757 FILLER_0_21_237
*758 FILLER_0_21_249
*759 FILLER_0_21_261
*760 FILLER_0_21_27
*761 FILLER_0_21_273
*762 FILLER_0_21_279
*763 FILLER_0_21_281
*764 FILLER_0_21_293
*765 FILLER_0_21_3
*766 FILLER_0_21_305
*767 FILLER_0_21_317
*768 FILLER_0_21_329
*769 FILLER_0_21_39
*770 FILLER_0_21_51
*771 FILLER_0_21_55
*772 FILLER_0_21_57
*773 FILLER_0_21_69
*774 FILLER_0_21_81
*775 FILLER_0_21_93
*776 FILLER_0_22_109
*777 FILLER_0_22_121
*778 FILLER_0_22_133
*779 FILLER_0_22_139
*780 FILLER_0_22_141
*781 FILLER_0_22_15
*782 FILLER_0_22_153
*783 FILLER_0_22_165
*784 FILLER_0_22_177
*785 FILLER_0_22_189
*786 FILLER_0_22_195
*787 FILLER_0_22_197
*788 FILLER_0_22_209
*789 FILLER_0_22_221
*790 FILLER_0_22_233
*791 FILLER_0_22_245
*792 FILLER_0_22_251
*793 FILLER_0_22_253
*794 FILLER_0_22_265
*795 FILLER_0_22_27
*796 FILLER_0_22_277
*797 FILLER_0_22_289
*798 FILLER_0_22_29
*799 FILLER_0_22_3
*800 FILLER_0_22_301
*801 FILLER_0_22_307
*802 FILLER_0_22_309
*803 FILLER_0_22_321
*804 FILLER_0_22_333
*805 FILLER_0_22_41
*806 FILLER_0_22_53
*807 FILLER_0_22_65
*808 FILLER_0_22_77
*809 FILLER_0_22_83
*810 FILLER_0_22_85
*811 FILLER_0_22_97
*812 FILLER_0_23_105
*813 FILLER_0_23_111
*814 FILLER_0_23_113
*815 FILLER_0_23_125
*816 FILLER_0_23_137
*817 FILLER_0_23_149
*818 FILLER_0_23_15
*819 FILLER_0_23_161
*820 FILLER_0_23_167
*821 FILLER_0_23_169
*822 FILLER_0_23_181
*823 FILLER_0_23_193
*824 FILLER_0_23_205
*825 FILLER_0_23_217
*826 FILLER_0_23_223
*827 FILLER_0_23_225
*828 FILLER_0_23_237
*829 FILLER_0_23_249
*830 FILLER_0_23_261
*831 FILLER_0_23_27
*832 FILLER_0_23_273
*833 FILLER_0_23_279
*834 FILLER_0_23_281
*835 FILLER_0_23_293
*836 FILLER_0_23_3
*837 FILLER_0_23_305
*838 FILLER_0_23_317
*839 FILLER_0_23_329
*840 FILLER_0_23_39
*841 FILLER_0_23_51
*842 FILLER_0_23_55
*843 FILLER_0_23_57
*844 FILLER_0_23_69
*845 FILLER_0_23_81
*846 FILLER_0_23_93
*847 FILLER_0_24_109
*848 FILLER_0_24_121
*849 FILLER_0_24_133
*850 FILLER_0_24_139
*851 FILLER_0_24_141
*852 FILLER_0_24_15
*853 FILLER_0_24_153
*854 FILLER_0_24_165
*855 FILLER_0_24_177
*856 FILLER_0_24_189
*857 FILLER_0_24_195
*858 FILLER_0_24_197
*859 FILLER_0_24_209
*860 FILLER_0_24_221
*861 FILLER_0_24_233
*862 FILLER_0_24_245
*863 FILLER_0_24_251
*864 FILLER_0_24_253
*865 FILLER_0_24_265
*866 FILLER_0_24_27
*867 FILLER_0_24_277
*868 FILLER_0_24_289
*869 FILLER_0_24_29
*870 FILLER_0_24_3
*871 FILLER_0_24_301
*872 FILLER_0_24_307
*873 FILLER_0_24_309
*874 FILLER_0_24_321
*875 FILLER_0_24_333
*876 FILLER_0_24_41
*877 FILLER_0_24_53
*878 FILLER_0_24_65
*879 FILLER_0_24_77
*880 FILLER_0_24_83
*881 FILLER_0_24_85
*882 FILLER_0_24_97
*883 FILLER_0_25_105
*884 FILLER_0_25_111
*885 FILLER_0_25_113
*886 FILLER_0_25_125
*887 FILLER_0_25_137
*888 FILLER_0_25_149
*889 FILLER_0_25_15
*890 FILLER_0_25_161
*891 FILLER_0_25_167
*892 FILLER_0_25_169
*893 FILLER_0_25_181
*894 FILLER_0_25_193
*895 FILLER_0_25_205
*896 FILLER_0_25_217
*897 FILLER_0_25_223
*898 FILLER_0_25_225
*899 FILLER_0_25_237
*900 FILLER_0_25_249
*901 FILLER_0_25_261
*902 FILLER_0_25_27
*903 FILLER_0_25_273
*904 FILLER_0_25_279
*905 FILLER_0_25_281
*906 FILLER_0_25_293
*907 FILLER_0_25_3
*908 FILLER_0_25_305
*909 FILLER_0_25_317
*910 FILLER_0_25_329
*911 FILLER_0_25_39
*912 FILLER_0_25_51
*913 FILLER_0_25_55
*914 FILLER_0_25_57
*915 FILLER_0_25_69
*916 FILLER_0_25_81
*917 FILLER_0_25_93
*918 FILLER_0_26_109
*919 FILLER_0_26_121
*920 FILLER_0_26_133
*921 FILLER_0_26_139
*922 FILLER_0_26_141
*923 FILLER_0_26_15
*924 FILLER_0_26_153
*925 FILLER_0_26_165
*926 FILLER_0_26_177
*927 FILLER_0_26_189
*928 FILLER_0_26_195
*929 FILLER_0_26_197
*930 FILLER_0_26_209
*931 FILLER_0_26_221
*932 FILLER_0_26_233
*933 FILLER_0_26_245
*934 FILLER_0_26_251
*935 FILLER_0_26_253
*936 FILLER_0_26_265
*937 FILLER_0_26_27
*938 FILLER_0_26_277
*939 FILLER_0_26_289
*940 FILLER_0_26_29
*941 FILLER_0_26_3
*942 FILLER_0_26_301
*943 FILLER_0_26_307
*944 FILLER_0_26_309
*945 FILLER_0_26_321
*946 FILLER_0_26_333
*947 FILLER_0_26_41
*948 FILLER_0_26_53
*949 FILLER_0_26_65
*950 FILLER_0_26_77
*951 FILLER_0_26_83
*952 FILLER_0_26_85
*953 FILLER_0_26_97
*954 FILLER_0_27_105
*955 FILLER_0_27_111
*956 FILLER_0_27_113
*957 FILLER_0_27_125
*958 FILLER_0_27_137
*959 FILLER_0_27_145
*960 FILLER_0_27_15
*961 FILLER_0_27_152
*962 FILLER_0_27_164
*963 FILLER_0_27_169
*964 FILLER_0_27_181
*965 FILLER_0_27_185
*966 FILLER_0_27_202
*967 FILLER_0_27_214
*968 FILLER_0_27_222
*969 FILLER_0_27_225
*970 FILLER_0_27_237
*971 FILLER_0_27_245
*972 FILLER_0_27_254
*973 FILLER_0_27_258
*974 FILLER_0_27_262
*975 FILLER_0_27_27
*976 FILLER_0_27_270
*977 FILLER_0_27_278
*978 FILLER_0_27_284
*979 FILLER_0_27_296
*980 FILLER_0_27_3
*981 FILLER_0_27_308
*982 FILLER_0_27_320
*983 FILLER_0_27_332
*984 FILLER_0_27_39
*985 FILLER_0_27_51
*986 FILLER_0_27_55
*987 FILLER_0_27_57
*988 FILLER_0_27_69
*989 FILLER_0_27_81
*990 FILLER_0_27_93
*991 FILLER_0_28_114
*992 FILLER_0_28_126
*993 FILLER_0_28_138
*994 FILLER_0_28_141
*995 FILLER_0_28_145
*996 FILLER_0_28_15
*997 FILLER_0_28_166
*998 FILLER_0_28_174
*999 FILLER_0_28_213
*1000 FILLER_0_28_221
*1001 FILLER_0_28_250
*1002 FILLER_0_28_27
*1003 FILLER_0_28_29
*1004 FILLER_0_28_296
*1005 FILLER_0_28_3
*1006 FILLER_0_28_309
*1007 FILLER_0_28_321
*1008 FILLER_0_28_333
*1009 FILLER_0_28_41
*1010 FILLER_0_28_53
*1011 FILLER_0_28_65
*1012 FILLER_0_28_77
*1013 FILLER_0_28_83
*1014 FILLER_0_28_85
*1015 FILLER_0_29_110
*1016 FILLER_0_29_113
*1017 FILLER_0_29_125
*1018 FILLER_0_29_15
*1019 FILLER_0_29_156
*1020 FILLER_0_29_165
*1021 FILLER_0_29_174
*1022 FILLER_0_29_203
*1023 FILLER_0_29_215
*1024 FILLER_0_29_27
*1025 FILLER_0_29_279
*1026 FILLER_0_29_297
*1027 FILLER_0_29_3
*1028 FILLER_0_29_309
*1029 FILLER_0_29_318
*1030 FILLER_0_29_333
*1031 FILLER_0_29_39
*1032 FILLER_0_29_51
*1033 FILLER_0_29_55
*1034 FILLER_0_29_57
*1035 FILLER_0_29_69
*1036 FILLER_0_29_81
*1037 FILLER_0_2_109
*1038 FILLER_0_2_121
*1039 FILLER_0_2_133
*1040 FILLER_0_2_139
*1041 FILLER_0_2_141
*1042 FILLER_0_2_15
*1043 FILLER_0_2_153
*1044 FILLER_0_2_165
*1045 FILLER_0_2_177
*1046 FILLER_0_2_189
*1047 FILLER_0_2_195
*1048 FILLER_0_2_197
*1049 FILLER_0_2_209
*1050 FILLER_0_2_221
*1051 FILLER_0_2_233
*1052 FILLER_0_2_245
*1053 FILLER_0_2_251
*1054 FILLER_0_2_253
*1055 FILLER_0_2_265
*1056 FILLER_0_2_27
*1057 FILLER_0_2_277
*1058 FILLER_0_2_289
*1059 FILLER_0_2_29
*1060 FILLER_0_2_3
*1061 FILLER_0_2_301
*1062 FILLER_0_2_307
*1063 FILLER_0_2_309
*1064 FILLER_0_2_321
*1065 FILLER_0_2_333
*1066 FILLER_0_2_41
*1067 FILLER_0_2_53
*1068 FILLER_0_2_65
*1069 FILLER_0_2_77
*1070 FILLER_0_2_83
*1071 FILLER_0_2_85
*1072 FILLER_0_2_97
*1073 FILLER_0_30_125
*1074 FILLER_0_30_133
*1075 FILLER_0_30_15
*1076 FILLER_0_30_157
*1077 FILLER_0_30_205
*1078 FILLER_0_30_217
*1079 FILLER_0_30_225
*1080 FILLER_0_30_261
*1081 FILLER_0_30_27
*1082 FILLER_0_30_278
*1083 FILLER_0_30_29
*1084 FILLER_0_30_298
*1085 FILLER_0_30_3
*1086 FILLER_0_30_306
*1087 FILLER_0_30_309
*1088 FILLER_0_30_334
*1089 FILLER_0_30_41
*1090 FILLER_0_30_53
*1091 FILLER_0_30_65
*1092 FILLER_0_30_77
*1093 FILLER_0_31_111
*1094 FILLER_0_31_118
*1095 FILLER_0_31_130
*1096 FILLER_0_31_15
*1097 FILLER_0_31_160
*1098 FILLER_0_31_177
*1099 FILLER_0_31_187
*1100 FILLER_0_31_203
*1101 FILLER_0_31_209
*1102 FILLER_0_31_218
*1103 FILLER_0_31_225
*1104 FILLER_0_31_231
*1105 FILLER_0_31_237
*1106 FILLER_0_31_27
*1107 FILLER_0_31_275
*1108 FILLER_0_31_279
*1109 FILLER_0_31_281
*1110 FILLER_0_31_293
*1111 FILLER_0_31_3
*1112 FILLER_0_31_39
*1113 FILLER_0_31_51
*1114 FILLER_0_31_55
*1115 FILLER_0_31_57
*1116 FILLER_0_31_69
*1117 FILLER_0_31_81
*1118 FILLER_0_31_85
*1119 FILLER_0_32_118
*1120 FILLER_0_32_130
*1121 FILLER_0_32_138
*1122 FILLER_0_32_141
*1123 FILLER_0_32_15
*1124 FILLER_0_32_157
*1125 FILLER_0_32_162
*1126 FILLER_0_32_186
*1127 FILLER_0_32_194
*1128 FILLER_0_32_197
*1129 FILLER_0_32_205
*1130 FILLER_0_32_239
*1131 FILLER_0_32_251
*1132 FILLER_0_32_27
*1133 FILLER_0_32_274
*1134 FILLER_0_32_286
*1135 FILLER_0_32_29
*1136 FILLER_0_32_291
*1137 FILLER_0_32_295
*1138 FILLER_0_32_299
*1139 FILLER_0_32_3
*1140 FILLER_0_32_309
*1141 FILLER_0_32_334
*1142 FILLER_0_32_41
*1143 FILLER_0_32_53
*1144 FILLER_0_32_65
*1145 FILLER_0_32_77
*1146 FILLER_0_32_83
*1147 FILLER_0_32_85
*1148 FILLER_0_32_89
*1149 FILLER_0_33_111
*1150 FILLER_0_33_121
*1151 FILLER_0_33_140
*1152 FILLER_0_33_15
*1153 FILLER_0_33_158
*1154 FILLER_0_33_166
*1155 FILLER_0_33_169
*1156 FILLER_0_33_189
*1157 FILLER_0_33_201
*1158 FILLER_0_33_246
*1159 FILLER_0_33_254
*1160 FILLER_0_33_263
*1161 FILLER_0_33_27
*1162 FILLER_0_33_275
*1163 FILLER_0_33_279
*1164 FILLER_0_33_297
*1165 FILLER_0_33_3
*1166 FILLER_0_33_39
*1167 FILLER_0_33_51
*1168 FILLER_0_33_55
*1169 FILLER_0_33_57
*1170 FILLER_0_33_69
*1171 FILLER_0_33_81
*1172 FILLER_0_33_89
*1173 FILLER_0_34_100
*1174 FILLER_0_34_111
*1175 FILLER_0_34_123
*1176 FILLER_0_34_15
*1177 FILLER_0_34_157
*1178 FILLER_0_34_168
*1179 FILLER_0_34_197
*1180 FILLER_0_34_241
*1181 FILLER_0_34_251
*1182 FILLER_0_34_253
*1183 FILLER_0_34_259
*1184 FILLER_0_34_27
*1185 FILLER_0_34_276
*1186 FILLER_0_34_284
*1187 FILLER_0_34_29
*1188 FILLER_0_34_3
*1189 FILLER_0_34_324
*1190 FILLER_0_34_334
*1191 FILLER_0_34_41
*1192 FILLER_0_34_53
*1193 FILLER_0_34_65
*1194 FILLER_0_34_77
*1195 FILLER_0_34_83
*1196 FILLER_0_34_85
*1197 FILLER_0_35_106
*1198 FILLER_0_35_113
*1199 FILLER_0_35_120
*1200 FILLER_0_35_15
*1201 FILLER_0_35_167
*1202 FILLER_0_35_180
*1203 FILLER_0_35_192
*1204 FILLER_0_35_223
*1205 FILLER_0_35_234
*1206 FILLER_0_35_238
*1207 FILLER_0_35_258
*1208 FILLER_0_35_27
*1209 FILLER_0_35_270
*1210 FILLER_0_35_276
*1211 FILLER_0_35_285
*1212 FILLER_0_35_3
*1213 FILLER_0_35_323
*1214 FILLER_0_35_334
*1215 FILLER_0_35_39
*1216 FILLER_0_35_51
*1217 FILLER_0_35_55
*1218 FILLER_0_35_57
*1219 FILLER_0_35_69
*1220 FILLER_0_35_81
*1221 FILLER_0_36_111
*1222 FILLER_0_36_119
*1223 FILLER_0_36_132
*1224 FILLER_0_36_139
*1225 FILLER_0_36_15
*1226 FILLER_0_36_154
*1227 FILLER_0_36_174
*1228 FILLER_0_36_186
*1229 FILLER_0_36_194
*1230 FILLER_0_36_197
*1231 FILLER_0_36_226
*1232 FILLER_0_36_234
*1233 FILLER_0_36_242
*1234 FILLER_0_36_253
*1235 FILLER_0_36_27
*1236 FILLER_0_36_275
*1237 FILLER_0_36_283
*1238 FILLER_0_36_287
*1239 FILLER_0_36_29
*1240 FILLER_0_36_3
*1241 FILLER_0_36_307
*1242 FILLER_0_36_309
*1243 FILLER_0_36_334
*1244 FILLER_0_36_41
*1245 FILLER_0_36_53
*1246 FILLER_0_36_65
*1247 FILLER_0_36_77
*1248 FILLER_0_36_83
*1249 FILLER_0_37_111
*1250 FILLER_0_37_119
*1251 FILLER_0_37_126
*1252 FILLER_0_37_15
*1253 FILLER_0_37_159
*1254 FILLER_0_37_192
*1255 FILLER_0_37_233
*1256 FILLER_0_37_27
*1257 FILLER_0_37_277
*1258 FILLER_0_37_3
*1259 FILLER_0_37_39
*1260 FILLER_0_37_51
*1261 FILLER_0_37_55
*1262 FILLER_0_37_57
*1263 FILLER_0_37_69
*1264 FILLER_0_37_81
*1265 FILLER_0_37_87
*1266 FILLER_0_38_10
*1267 FILLER_0_38_105
*1268 FILLER_0_38_111
*1269 FILLER_0_38_113
*1270 FILLER_0_38_118
*1271 FILLER_0_38_130
*1272 FILLER_0_38_134
*1273 FILLER_0_38_14
*1274 FILLER_0_38_141
*1275 FILLER_0_38_148
*1276 FILLER_0_38_160
*1277 FILLER_0_38_169
*1278 FILLER_0_38_18
*1279 FILLER_0_38_185
*1280 FILLER_0_38_193
*1281 FILLER_0_38_197
*1282 FILLER_0_38_205
*1283 FILLER_0_38_209
*1284 FILLER_0_38_215
*1285 FILLER_0_38_22
*1286 FILLER_0_38_225
*1287 FILLER_0_38_235
*1288 FILLER_0_38_243
*1289 FILLER_0_38_251
*1290 FILLER_0_38_269
*1291 FILLER_0_38_277
*1292 FILLER_0_38_281
*1293 FILLER_0_38_302
*1294 FILLER_0_38_309
*1295 FILLER_0_38_315
*1296 FILLER_0_38_32
*1297 FILLER_0_38_333
*1298 FILLER_0_38_38
*1299 FILLER_0_38_42
*1300 FILLER_0_38_46
*1301 FILLER_0_38_50
*1302 FILLER_0_38_54
*1303 FILLER_0_38_57
*1304 FILLER_0_38_6
*1305 FILLER_0_38_62
*1306 FILLER_0_38_66
*1307 FILLER_0_38_70
*1308 FILLER_0_38_74
*1309 FILLER_0_38_78
*1310 FILLER_0_38_85
*1311 FILLER_0_38_98
*1312 FILLER_0_3_105
*1313 FILLER_0_3_111
*1314 FILLER_0_3_113
*1315 FILLER_0_3_125
*1316 FILLER_0_3_137
*1317 FILLER_0_3_149
*1318 FILLER_0_3_15
*1319 FILLER_0_3_161
*1320 FILLER_0_3_167
*1321 FILLER_0_3_169
*1322 FILLER_0_3_181
*1323 FILLER_0_3_193
*1324 FILLER_0_3_205
*1325 FILLER_0_3_217
*1326 FILLER_0_3_223
*1327 FILLER_0_3_225
*1328 FILLER_0_3_237
*1329 FILLER_0_3_249
*1330 FILLER_0_3_261
*1331 FILLER_0_3_27
*1332 FILLER_0_3_273
*1333 FILLER_0_3_279
*1334 FILLER_0_3_281
*1335 FILLER_0_3_293
*1336 FILLER_0_3_3
*1337 FILLER_0_3_305
*1338 FILLER_0_3_317
*1339 FILLER_0_3_329
*1340 FILLER_0_3_39
*1341 FILLER_0_3_51
*1342 FILLER_0_3_55
*1343 FILLER_0_3_57
*1344 FILLER_0_3_69
*1345 FILLER_0_3_81
*1346 FILLER_0_3_93
*1347 FILLER_0_4_109
*1348 FILLER_0_4_121
*1349 FILLER_0_4_133
*1350 FILLER_0_4_139
*1351 FILLER_0_4_141
*1352 FILLER_0_4_15
*1353 FILLER_0_4_153
*1354 FILLER_0_4_165
*1355 FILLER_0_4_177
*1356 FILLER_0_4_189
*1357 FILLER_0_4_195
*1358 FILLER_0_4_197
*1359 FILLER_0_4_209
*1360 FILLER_0_4_221
*1361 FILLER_0_4_233
*1362 FILLER_0_4_245
*1363 FILLER_0_4_251
*1364 FILLER_0_4_253
*1365 FILLER_0_4_265
*1366 FILLER_0_4_27
*1367 FILLER_0_4_277
*1368 FILLER_0_4_289
*1369 FILLER_0_4_29
*1370 FILLER_0_4_3
*1371 FILLER_0_4_301
*1372 FILLER_0_4_307
*1373 FILLER_0_4_309
*1374 FILLER_0_4_321
*1375 FILLER_0_4_333
*1376 FILLER_0_4_41
*1377 FILLER_0_4_53
*1378 FILLER_0_4_65
*1379 FILLER_0_4_77
*1380 FILLER_0_4_83
*1381 FILLER_0_4_85
*1382 FILLER_0_4_97
*1383 FILLER_0_5_105
*1384 FILLER_0_5_111
*1385 FILLER_0_5_113
*1386 FILLER_0_5_125
*1387 FILLER_0_5_137
*1388 FILLER_0_5_149
*1389 FILLER_0_5_15
*1390 FILLER_0_5_161
*1391 FILLER_0_5_167
*1392 FILLER_0_5_169
*1393 FILLER_0_5_181
*1394 FILLER_0_5_193
*1395 FILLER_0_5_205
*1396 FILLER_0_5_217
*1397 FILLER_0_5_223
*1398 FILLER_0_5_225
*1399 FILLER_0_5_237
*1400 FILLER_0_5_249
*1401 FILLER_0_5_261
*1402 FILLER_0_5_27
*1403 FILLER_0_5_273
*1404 FILLER_0_5_279
*1405 FILLER_0_5_281
*1406 FILLER_0_5_293
*1407 FILLER_0_5_3
*1408 FILLER_0_5_305
*1409 FILLER_0_5_317
*1410 FILLER_0_5_329
*1411 FILLER_0_5_39
*1412 FILLER_0_5_51
*1413 FILLER_0_5_55
*1414 FILLER_0_5_57
*1415 FILLER_0_5_69
*1416 FILLER_0_5_81
*1417 FILLER_0_5_93
*1418 FILLER_0_6_109
*1419 FILLER_0_6_121
*1420 FILLER_0_6_133
*1421 FILLER_0_6_139
*1422 FILLER_0_6_141
*1423 FILLER_0_6_15
*1424 FILLER_0_6_153
*1425 FILLER_0_6_165
*1426 FILLER_0_6_177
*1427 FILLER_0_6_189
*1428 FILLER_0_6_195
*1429 FILLER_0_6_197
*1430 FILLER_0_6_209
*1431 FILLER_0_6_221
*1432 FILLER_0_6_233
*1433 FILLER_0_6_245
*1434 FILLER_0_6_251
*1435 FILLER_0_6_253
*1436 FILLER_0_6_265
*1437 FILLER_0_6_27
*1438 FILLER_0_6_277
*1439 FILLER_0_6_289
*1440 FILLER_0_6_29
*1441 FILLER_0_6_3
*1442 FILLER_0_6_301
*1443 FILLER_0_6_307
*1444 FILLER_0_6_309
*1445 FILLER_0_6_321
*1446 FILLER_0_6_333
*1447 FILLER_0_6_41
*1448 FILLER_0_6_53
*1449 FILLER_0_6_65
*1450 FILLER_0_6_77
*1451 FILLER_0_6_83
*1452 FILLER_0_6_85
*1453 FILLER_0_6_97
*1454 FILLER_0_7_105
*1455 FILLER_0_7_111
*1456 FILLER_0_7_113
*1457 FILLER_0_7_125
*1458 FILLER_0_7_137
*1459 FILLER_0_7_149
*1460 FILLER_0_7_15
*1461 FILLER_0_7_161
*1462 FILLER_0_7_167
*1463 FILLER_0_7_169
*1464 FILLER_0_7_181
*1465 FILLER_0_7_193
*1466 FILLER_0_7_205
*1467 FILLER_0_7_217
*1468 FILLER_0_7_223
*1469 FILLER_0_7_225
*1470 FILLER_0_7_237
*1471 FILLER_0_7_249
*1472 FILLER_0_7_261
*1473 FILLER_0_7_27
*1474 FILLER_0_7_273
*1475 FILLER_0_7_279
*1476 FILLER_0_7_281
*1477 FILLER_0_7_293
*1478 FILLER_0_7_3
*1479 FILLER_0_7_305
*1480 FILLER_0_7_317
*1481 FILLER_0_7_329
*1482 FILLER_0_7_39
*1483 FILLER_0_7_51
*1484 FILLER_0_7_55
*1485 FILLER_0_7_57
*1486 FILLER_0_7_69
*1487 FILLER_0_7_81
*1488 FILLER_0_7_93
*1489 FILLER_0_8_109