*SPEF "ieee 1481-1999"
*DESIGN "tt_um_ALU"
*DATE "00:58:50 Friday April 12, 2024"
*VENDOR "The OpenROAD Project"
*PROGRAM "OpenROAD"
*VERSION "0889970d1790a2617e69f253221b8bd7626e51dc"
*DESIGN_FLOW "NAME_SCOPE LOCAL" "PIN_CAP NONE"
*DIVIDER /
*DELIMITER :
*BUS_DELIMITER []
*T_UNIT 1 NS
*C_UNIT 1 PF
*R_UNIT 1 OHM
*L_UNIT 1 HENRY

*NAME_MAP
*3 clk
*4 ena
*5 rst_n
*6 ui_in[0]
*7 ui_in[1]
*8 ui_in[2]
*9 ui_in[3]
*10 ui_in[4]
*11 ui_in[5]
*12 ui_in[6]
*13 ui_in[7]
*14 uio_in[0]
*15 uio_in[1]
*16 uio_in[2]
*17 uio_in[3]
*18 uio_in[4]
*19 uio_in[5]
*20 uio_in[6]
*21 uio_in[7]
*22 net22
*23 net23
*24 net24
*25 net25
*26 net26
*27 net27
*28 net10
*29 net11
*30 net12
*31 net13
*32 net14
*33 net15
*34 net16
*35 net17
*36 net18
*37 net19
*38 uo_out[0]
*39 uo_out[1]
*40 uo_out[2]
*41 uo_out[3]
*42 uo_out[4]
*43 uo_out[5]
*44 net20
*45 net21
*46 _000_
*47 _001_
*48 _002_
*49 _003_
*50 _004_
*51 _005_
*52 _006_
*53 _007_
*54 _008_
*55 _009_
*56 _010_
*57 _011_
*58 _012_
*59 _013_
*60 _014_
*61 _015_
*62 _016_
*63 _017_
*64 _018_
*65 _019_
*66 _020_
*67 _021_
*68 _022_
*69 _023_
*70 _024_
*71 _025_
*72 _026_
*73 _027_
*74 _028_
*75 _029_
*76 _030_
*77 _031_
*78 _032_
*79 _033_
*80 _034_
*81 _035_
*82 _036_
*83 _037_
*84 _038_
*85 _039_
*86 _040_
*87 _041_
*88 _042_
*89 _043_
*90 _044_
*91 _045_
*92 _046_
*93 _047_
*94 _048_
*95 _049_
*96 _050_
*97 _051_
*98 _052_
*99 _053_
*100 _054_
*101 _055_
*102 _056_
*103 _057_
*104 _058_
*105 _059_
*106 _060_
*107 _061_
*108 _062_
*109 _063_
*110 _064_
*111 _065_
*112 _066_
*113 _067_
*114 _068_
*115 _069_
*116 _070_
*117 _071_
*118 _072_
*119 _073_
*120 _074_
*121 _075_
*122 _076_
*123 _077_
*124 _078_
*125 _079_
*126 _080_
*127 _081_
*128 _082_
*129 _083_
*130 _084_
*131 _085_
*132 net1
*133 net2
*134 net3
*135 net4
*136 net5
*137 net6
*138 net7
*139 net8
*140 net9
*141 FILLER_0_0_109
*142 FILLER_0_0_113
*143 FILLER_0_0_125
*144 FILLER_0_0_137
*145 FILLER_0_0_141
*146 FILLER_0_0_15
*147 FILLER_0_0_153
*148 FILLER_0_0_165
*149 FILLER_0_0_169
*150 FILLER_0_0_181
*151 FILLER_0_0_193
*152 FILLER_0_0_197
*153 FILLER_0_0_209
*154 FILLER_0_0_221
*155 FILLER_0_0_225
*156 FILLER_0_0_237
*157 FILLER_0_0_249
*158 FILLER_0_0_253
*159 FILLER_0_0_265
*160 FILLER_0_0_27
*161 FILLER_0_0_277
*162 FILLER_0_0_281
*163 FILLER_0_0_29
*164 FILLER_0_0_293
*165 FILLER_0_0_3
*166 FILLER_0_0_305
*167 FILLER_0_0_309
*168 FILLER_0_0_321
*169 FILLER_0_0_333
*170 FILLER_0_0_41
*171 FILLER_0_0_53
*172 FILLER_0_0_57
*173 FILLER_0_0_69
*174 FILLER_0_0_81
*175 FILLER_0_0_85
*176 FILLER_0_0_97
*177 FILLER_0_10_109
*178 FILLER_0_10_121
*179 FILLER_0_10_133
*180 FILLER_0_10_139
*181 FILLER_0_10_141
*182 FILLER_0_10_15
*183 FILLER_0_10_153
*184 FILLER_0_10_165
*185 FILLER_0_10_177
*186 FILLER_0_10_189
*187 FILLER_0_10_195
*188 FILLER_0_10_197
*189 FILLER_0_10_209
*190 FILLER_0_10_221
*191 FILLER_0_10_233
*192 FILLER_0_10_245
*193 FILLER_0_10_251
*194 FILLER_0_10_253
*195 FILLER_0_10_265
*196 FILLER_0_10_27
*197 FILLER_0_10_277
*198 FILLER_0_10_289
*199 FILLER_0_10_29
*200 FILLER_0_10_3
*201 FILLER_0_10_301
*202 FILLER_0_10_307
*203 FILLER_0_10_309
*204 FILLER_0_10_321
*205 FILLER_0_10_333
*206 FILLER_0_10_41
*207 FILLER_0_10_53
*208 FILLER_0_10_65
*209 FILLER_0_10_77
*210 FILLER_0_10_83
*211 FILLER_0_10_85
*212 FILLER_0_10_97
*213 FILLER_0_11_105
*214 FILLER_0_11_111
*215 FILLER_0_11_113
*216 FILLER_0_11_125
*217 FILLER_0_11_137
*218 FILLER_0_11_149
*219 FILLER_0_11_15
*220 FILLER_0_11_161
*221 FILLER_0_11_167
*222 FILLER_0_11_169
*223 FILLER_0_11_181
*224 FILLER_0_11_193
*225 FILLER_0_11_205
*226 FILLER_0_11_217
*227 FILLER_0_11_223
*228 FILLER_0_11_225
*229 FILLER_0_11_237
*230 FILLER_0_11_249
*231 FILLER_0_11_261
*232 FILLER_0_11_27
*233 FILLER_0_11_273
*234 FILLER_0_11_279
*235 FILLER_0_11_281
*236 FILLER_0_11_293
*237 FILLER_0_11_3
*238 FILLER_0_11_305
*239 FILLER_0_11_317
*240 FILLER_0_11_329
*241 FILLER_0_11_39
*242 FILLER_0_11_51
*243 FILLER_0_11_55
*244 FILLER_0_11_57
*245 FILLER_0_11_69
*246 FILLER_0_11_81
*247 FILLER_0_11_93
*248 FILLER_0_12_109
*249 FILLER_0_12_121
*250 FILLER_0_12_133
*251 FILLER_0_12_139
*252 FILLER_0_12_141
*253 FILLER_0_12_15
*254 FILLER_0_12_153
*255 FILLER_0_12_165
*256 FILLER_0_12_177
*257 FILLER_0_12_189
*258 FILLER_0_12_195
*259 FILLER_0_12_197
*260 FILLER_0_12_209
*261 FILLER_0_12_221
*262 FILLER_0_12_233
*263 FILLER_0_12_245
*264 FILLER_0_12_251
*265 FILLER_0_12_253
*266 FILLER_0_12_265
*267 FILLER_0_12_27
*268 FILLER_0_12_277
*269 FILLER_0_12_289
*270 FILLER_0_12_29
*271 FILLER_0_12_3
*272 FILLER_0_12_301
*273 FILLER_0_12_307
*274 FILLER_0_12_309
*275 FILLER_0_12_321
*276 FILLER_0_12_333
*277 FILLER_0_12_41
*278 FILLER_0_12_53
*279 FILLER_0_12_65
*280 FILLER_0_12_77
*281 FILLER_0_12_83
*282 FILLER_0_12_85
*283 FILLER_0_12_97
*284 FILLER_0_13_105
*285 FILLER_0_13_111
*286 FILLER_0_13_113
*287 FILLER_0_13_125
*288 FILLER_0_13_137
*289 FILLER_0_13_149
*290 FILLER_0_13_15
*291 FILLER_0_13_161
*292 FILLER_0_13_167
*293 FILLER_0_13_169
*294 FILLER_0_13_181
*295 FILLER_0_13_193
*296 FILLER_0_13_205
*297 FILLER_0_13_217
*298 FILLER_0_13_223
*299 FILLER_0_13_225
*300 FILLER_0_13_237
*301 FILLER_0_13_249
*302 FILLER_0_13_261
*303 FILLER_0_13_27
*304 FILLER_0_13_273
*305 FILLER_0_13_279
*306 FILLER_0_13_281
*307 FILLER_0_13_293
*308 FILLER_0_13_3
*309 FILLER_0_13_305
*310 FILLER_0_13_317
*311 FILLER_0_13_329
*312 FILLER_0_13_39
*313 FILLER_0_13_51
*314 FILLER_0_13_55
*315 FILLER_0_13_57
*316 FILLER_0_13_69
*317 FILLER_0_13_81
*318 FILLER_0_13_93
*319 FILLER_0_14_109
*320 FILLER_0_14_121
*321 FILLER_0_14_133
*322 FILLER_0_14_139
*323 FILLER_0_14_141
*324 FILLER_0_14_15
*325 FILLER_0_14_153
*326 FILLER_0_14_165
*327 FILLER_0_14_177
*328 FILLER_0_14_189
*329 FILLER_0_14_195
*330 FILLER_0_14_197
*331 FILLER_0_14_209
*332 FILLER_0_14_221
*333 FILLER_0_14_233
*334 FILLER_0_14_245
*335 FILLER_0_14_251
*336 FILLER_0_14_253
*337 FILLER_0_14_265
*338 FILLER_0_14_27
*339 FILLER_0_14_277
*340 FILLER_0_14_289
*341 FILLER_0_14_29
*342 FILLER_0_14_3
*343 FILLER_0_14_301
*344 FILLER_0_14_307
*345 FILLER_0_14_309
*346 FILLER_0_14_321
*347 FILLER_0_14_333
*348 FILLER_0_14_41
*349 FILLER_0_14_53
*350 FILLER_0_14_65
*351 FILLER_0_14_77
*352 FILLER_0_14_83
*353 FILLER_0_14_85
*354 FILLER_0_14_97
*355 FILLER_0_15_105
*356 FILLER_0_15_111
*357 FILLER_0_15_113
*358 FILLER_0_15_125
*359 FILLER_0_15_137
*360 FILLER_0_15_149
*361 FILLER_0_15_15
*362 FILLER_0_15_161
*363 FILLER_0_15_167
*364 FILLER_0_15_169
*365 FILLER_0_15_181
*366 FILLER_0_15_193
*367 FILLER_0_15_205
*368 FILLER_0_15_217
*369 FILLER_0_15_223
*370 FILLER_0_15_225
*371 FILLER_0_15_237
*372 FILLER_0_15_249
*373 FILLER_0_15_261
*374 FILLER_0_15_27
*375 FILLER_0_15_273
*376 FILLER_0_15_279
*377 FILLER_0_15_281
*378 FILLER_0_15_293
*379 FILLER_0_15_3
*380 FILLER_0_15_305
*381 FILLER_0_15_317
*382 FILLER_0_15_329
*383 FILLER_0_15_39
*384 FILLER_0_15_51
*385 FILLER_0_15_55
*386 FILLER_0_15_57
*387 FILLER_0_15_69
*388 FILLER_0_15_81
*389 FILLER_0_15_93
*390 FILLER_0_16_109
*391 FILLER_0_16_121
*392 FILLER_0_16_133
*393 FILLER_0_16_139
*394 FILLER_0_16_141
*395 FILLER_0_16_15
*396 FILLER_0_16_153
*397 FILLER_0_16_165
*398 FILLER_0_16_177
*399 FILLER_0_16_189
*400 FILLER_0_16_195
*401 FILLER_0_16_197
*402 FILLER_0_16_209
*403 FILLER_0_16_221
*404 FILLER_0_16_233
*405 FILLER_0_16_245
*406 FILLER_0_16_251
*407 FILLER_0_16_253
*408 FILLER_0_16_265
*409 FILLER_0_16_27
*410 FILLER_0_16_277
*411 FILLER_0_16_289
*412 FILLER_0_16_29
*413 FILLER_0_16_3
*414 FILLER_0_16_301
*415 FILLER_0_16_307
*416 FILLER_0_16_309
*417 FILLER_0_16_321
*418 FILLER_0_16_333
*419 FILLER_0_16_41
*420 FILLER_0_16_53
*421 FILLER_0_16_65
*422 FILLER_0_16_77
*423 FILLER_0_16_83
*424 FILLER_0_16_85
*425 FILLER_0_16_97
*426 FILLER_0_17_105
*427 FILLER_0_17_111
*428 FILLER_0_17_113
*429 FILLER_0_17_125
*430 FILLER_0_17_137
*431 FILLER_0_17_149
*432 FILLER_0_17_15
*433 FILLER_0_17_161
*434 FILLER_0_17_167
*435 FILLER_0_17_169
*436 FILLER_0_17_181
*437 FILLER_0_17_193
*438 FILLER_0_17_205
*439 FILLER_0_17_217
*440 FILLER_0_17_223
*441 FILLER_0_17_225
*442 FILLER_0_17_237
*443 FILLER_0_17_249
*444 FILLER_0_17_261
*445 FILLER_0_17_27
*446 FILLER_0_17_273
*447 FILLER_0_17_279
*448 FILLER_0_17_281
*449 FILLER_0_17_293
*450 FILLER_0_17_3
*451 FILLER_0_17_305
*452 FILLER_0_17_317
*453 FILLER_0_17_329
*454 FILLER_0_17_39
*455 FILLER_0_17_51
*456 FILLER_0_17_55
*457 FILLER_0_17_57
*458 FILLER_0_17_69
*459 FILLER_0_17_81
*460 FILLER_0_17_93
*461 FILLER_0_18_109
*462 FILLER_0_18_121
*463 FILLER_0_18_133
*464 FILLER_0_18_139
*465 FILLER_0_18_141
*466 FILLER_0_18_15
*467 FILLER_0_18_153
*468 FILLER_0_18_165
*469 FILLER_0_18_177
*470 FILLER_0_18_189
*471 FILLER_0_18_195
*472 FILLER_0_18_197
*473 FILLER_0_18_209
*474 FILLER_0_18_221
*475 FILLER_0_18_233
*476 FILLER_0_18_245
*477 FILLER_0_18_251
*478 FILLER_0_18_253
*479 FILLER_0_18_265
*480 FILLER_0_18_27
*481 FILLER_0_18_277
*482 FILLER_0_18_289
*483 FILLER_0_18_29
*484 FILLER_0_18_3
*485 FILLER_0_18_301
*486 FILLER_0_18_307
*487 FILLER_0_18_309
*488 FILLER_0_18_321
*489 FILLER_0_18_333
*490 FILLER_0_18_41
*491 FILLER_0_18_53
*492 FILLER_0_18_65
*493 FILLER_0_18_77
*494 FILLER_0_18_83
*495 FILLER_0_18_85
*496 FILLER_0_18_97
*497 FILLER_0_19_105
*498 FILLER_0_19_111
*499 FILLER_0_19_113
*500 FILLER_0_19_125
*501 FILLER_0_19_137
*502 FILLER_0_19_149
*503 FILLER_0_19_15
*504 FILLER_0_19_161
*505 FILLER_0_19_167
*506 FILLER_0_19_169
*507 FILLER_0_19_181
*508 FILLER_0_19_193
*509 FILLER_0_19_205
*510 FILLER_0_19_217
*511 FILLER_0_19_223
*512 FILLER_0_19_225
*513 FILLER_0_19_237
*514 FILLER_0_19_249
*515 FILLER_0_19_261
*516 FILLER_0_19_27
*517 FILLER_0_19_273
*518 FILLER_0_19_279
*519 FILLER_0_19_281
*520 FILLER_0_19_293
*521 FILLER_0_19_3
*522 FILLER_0_19_305
*523 FILLER_0_19_317
*524 FILLER_0_19_329
*525 FILLER_0_19_39
*526 FILLER_0_19_51
*527 FILLER_0_19_55
*528 FILLER_0_19_57
*529 FILLER_0_19_69
*530 FILLER_0_19_81
*531 FILLER_0_19_93
*532 FILLER_0_1_105
*533 FILLER_0_1_111
*534 FILLER_0_1_113
*535 FILLER_0_1_125
*536 FILLER_0_1_137
*537 FILLER_0_1_149
*538 FILLER_0_1_15
*539 FILLER_0_1_161
*540 FILLER_0_1_167
*541 FILLER_0_1_169
*542 FILLER_0_1_181
*543 FILLER_0_1_193
*544 FILLER_0_1_205
*545 FILLER_0_1_217
*546 FILLER_0_1_223
*547 FILLER_0_1_225
*548 FILLER_0_1_237
*549 FILLER_0_1_249
*550 FILLER_0_1_261
*551 FILLER_0_1_27
*552 FILLER_0_1_273
*553 FILLER_0_1_279
*554 FILLER_0_1_281
*555 FILLER_0_1_293
*556 FILLER_0_1_3
*557 FILLER_0_1_305
*558 FILLER_0_1_317
*559 FILLER_0_1_329
*560 FILLER_0_1_39
*561 FILLER_0_1_51
*562 FILLER_0_1_55
*563 FILLER_0_1_57
*564 FILLER_0_1_69
*565 FILLER_0_1_81
*566 FILLER_0_1_93
*567 FILLER_0_20_109
*568 FILLER_0_20_121
*569 FILLER_0_20_133
*570 FILLER_0_20_139
*571 FILLER_0_20_141
*572 FILLER_0_20_15
*573 FILLER_0_20_153
*574 FILLER_0_20_165
*575 FILLER_0_20_177
*576 FILLER_0_20_189
*577 FILLER_0_20_195
*578 FILLER_0_20_197
*579 FILLER_0_20_209
*580 FILLER_0_20_221
*581 FILLER_0_20_233
*582 FILLER_0_20_245
*583 FILLER_0_20_251
*584 FILLER_0_20_253
*585 FILLER_0_20_265
*586 FILLER_0_20_27
*587 FILLER_0_20_277
*588 FILLER_0_20_289
*589 FILLER_0_20_29
*590 FILLER_0_20_3
*591 FILLER_0_20_301
*592 FILLER_0_20_307
*593 FILLER_0_20_309
*594 FILLER_0_20_321
*595 FILLER_0_20_333
*596 FILLER_0_20_41
*597 FILLER_0_20_53
*598 FILLER_0_20_65
*599 FILLER_0_20_77
*600 FILLER_0_20_83
*601 FILLER_0_20_85
*602 FILLER_0_20_97
*603 FILLER_0_21_105
*604 FILLER_0_21_111
*605 FILLER_0_21_113
*606 FILLER_0_21_125
*607 FILLER_0_21_137
*608 FILLER_0_21_149
*609 FILLER_0_21_15
*610 FILLER_0_21_161
*611 FILLER_0_21_167
*612 FILLER_0_21_169
*613 FILLER_0_21_181
*614 FILLER_0_21_193
*615 FILLER_0_21_205
*616 FILLER_0_21_217
*617 FILLER_0_21_223
*618 FILLER_0_21_225
*619 FILLER_0_21_237
*620 FILLER_0_21_249
*621 FILLER_0_21_261
*622 FILLER_0_21_27
*623 FILLER_0_21_273
*624 FILLER_0_21_279
*625 FILLER_0_21_281
*626 FILLER_0_21_293
*627 FILLER_0_21_3
*628 FILLER_0_21_305
*629 FILLER_0_21_317
*630 FILLER_0_21_329
*631 FILLER_0_21_39
*632 FILLER_0_21_51
*633 FILLER_0_21_55
*634 FILLER_0_21_57
*635 FILLER_0_21_69
*636 FILLER_0_21_81
*637 FILLER_0_21_93
*638 FILLER_0_22_109
*639 FILLER_0_22_121
*640 FILLER_0_22_133
*641 FILLER_0_22_139
*642 FILLER_0_22_141
*643 FILLER_0_22_15
*644 FILLER_0_22_153
*645 FILLER_0_22_165
*646 FILLER_0_22_177
*647 FILLER_0_22_189
*648 FILLER_0_22_195
*649 FILLER_0_22_197
*650 FILLER_0_22_209
*651 FILLER_0_22_221
*652 FILLER_0_22_233
*653 FILLER_0_22_245
*654 FILLER_0_22_251
*655 FILLER_0_22_253
*656 FILLER_0_22_265
*657 FILLER_0_22_27
*658 FILLER_0_22_277
*659 FILLER_0_22_289
*660 FILLER_0_22_29
*661 FILLER_0_22_3
*662 FILLER_0_22_301
*663 FILLER_0_22_307
*664 FILLER_0_22_309
*665 FILLER_0_22_321
*666 FILLER_0_22_333
*667 FILLER_0_22_41
*668 FILLER_0_22_53
*669 FILLER_0_22_65
*670 FILLER_0_22_77
*671 FILLER_0_22_83
*672 FILLER_0_22_85
*673 FILLER_0_22_97
*674 FILLER_0_23_105
*675 FILLER_0_23_111
*676 FILLER_0_23_113
*677 FILLER_0_23_125
*678 FILLER_0_23_137
*679 FILLER_0_23_149
*680 FILLER_0_23_15
*681 FILLER_0_23_161
*682 FILLER_0_23_167
*683 FILLER_0_23_169
*684 FILLER_0_23_181
*685 FILLER_0_23_193
*686 FILLER_0_23_205
*687 FILLER_0_23_217
*688 FILLER_0_23_223
*689 FILLER_0_23_225
*690 FILLER_0_23_237
*691 FILLER_0_23_249
*692 FILLER_0_23_261
*693 FILLER_0_23_27
*694 FILLER_0_23_273
*695 FILLER_0_23_279
*696 FILLER_0_23_281
*697 FILLER_0_23_293
*698 FILLER_0_23_3
*699 FILLER_0_23_305
*700 FILLER_0_23_317
*701 FILLER_0_23_329
*702 FILLER_0_23_39
*703 FILLER_0_23_51
*704 FILLER_0_23_55
*705 FILLER_0_23_57
*706 FILLER_0_23_69
*707 FILLER_0_23_81
*708 FILLER_0_23_93
*709 FILLER_0_24_109
*710 FILLER_0_24_121
*711 FILLER_0_24_133
*712 FILLER_0_24_139
*713 FILLER_0_24_141
*714 FILLER_0_24_15
*715 FILLER_0_24_153
*716 FILLER_0_24_165
*717 FILLER_0_24_177
*718 FILLER_0_24_189
*719 FILLER_0_24_195
*720 FILLER_0_24_197
*721 FILLER_0_24_209
*722 FILLER_0_24_221
*723 FILLER_0_24_233
*724 FILLER_0_24_245
*725 FILLER_0_24_251
*726 FILLER_0_24_253
*727 FILLER_0_24_265
*728 FILLER_0_24_27
*729 FILLER_0_24_277
*730 FILLER_0_24_289
*731 FILLER_0_24_29
*732 FILLER_0_24_3
*733 FILLER_0_24_301
*734 FILLER_0_24_307
*735 FILLER_0_24_309
*736 FILLER_0_24_321
*737 FILLER_0_24_333
*738 FILLER_0_24_41
*739 FILLER_0_24_53
*740 FILLER_0_24_65
*741 FILLER_0_24_77
*742 FILLER_0_24_83
*743 FILLER_0_24_85
*744 FILLER_0_24_97
*745 FILLER_0_25_105
*746 FILLER_0_25_111
*747 FILLER_0_25_113
*748 FILLER_0_25_125
*749 FILLER_0_25_137
*750 FILLER_0_25_149
*751 FILLER_0_25_15
*752 FILLER_0_25_161
*753 FILLER_0_25_167
*754 FILLER_0_25_169
*755 FILLER_0_25_181
*756 FILLER_0_25_193
*757 FILLER_0_25_205
*758 FILLER_0_25_217
*759 FILLER_0_25_223
*760 FILLER_0_25_225
*761 FILLER_0_25_237
*762 FILLER_0_25_249
*763 FILLER_0_25_261
*764 FILLER_0_25_27
*765 FILLER_0_25_273
*766 FILLER_0_25_279
*767 FILLER_0_25_281
*768 FILLER_0_25_293
*769 FILLER_0_25_3
*770 FILLER_0_25_305
*771 FILLER_0_25_317
*772 FILLER_0_25_329
*773 FILLER_0_25_39
*774 FILLER_0_25_51
*775 FILLER_0_25_55
*776 FILLER_0_25_57
*777 FILLER_0_25_69
*778 FILLER_0_25_81
*779 FILLER_0_25_93
*780 FILLER_0_26_109
*781 FILLER_0_26_121
*782 FILLER_0_26_133
*783 FILLER_0_26_139
*784 FILLER_0_26_141
*785 FILLER_0_26_15
*786 FILLER_0_26_153
*787 FILLER_0_26_165
*788 FILLER_0_26_177
*789 FILLER_0_26_189
*790 FILLER_0_26_195
*791 FILLER_0_26_197
*792 FILLER_0_26_209
*793 FILLER_0_26_221
*794 FILLER_0_26_233
*795 FILLER_0_26_245
*796 FILLER_0_26_251
*797 FILLER_0_26_253
*798 FILLER_0_26_265
*799 FILLER_0_26_27
*800 FILLER_0_26_277
*801 FILLER_0_26_289
*802 FILLER_0_26_29
*803 FILLER_0_26_3
*804 FILLER_0_26_301
*805 FILLER_0_26_307
*806 FILLER_0_26_309
*807 FILLER_0_26_321
*808 FILLER_0_26_333
*809 FILLER_0_26_41
*810 FILLER_0_26_53
*811 FILLER_0_26_65
*812 FILLER_0_26_77
*813 FILLER_0_26_83
*814 FILLER_0_26_85
*815 FILLER_0_26_97
*816 FILLER_0_27_105
*817 FILLER_0_27_111
*818 FILLER_0_27_113
*819 FILLER_0_27_125
*820 FILLER_0_27_137
*821 FILLER_0_27_149
*822 FILLER_0_27_15
*823 FILLER_0_27_161
*824 FILLER_0_27_167
*825 FILLER_0_27_169
*826 FILLER_0_27_181
*827 FILLER_0_27_193
*828 FILLER_0_27_205
*829 FILLER_0_27_217
*830 FILLER_0_27_223
*831 FILLER_0_27_225
*832 FILLER_0_27_237
*833 FILLER_0_27_249
*834 FILLER_0_27_261
*835 FILLER_0_27_27
*836 FILLER_0_27_273
*837 FILLER_0_27_279
*838 FILLER_0_27_281
*839 FILLER_0_27_293
*840 FILLER_0_27_3
*841 FILLER_0_27_305
*842 FILLER_0_27_317
*843 FILLER_0_27_329
*844 FILLER_0_27_39
*845 FILLER_0_27_51
*846 FILLER_0_27_55
*847 FILLER_0_27_57
*848 FILLER_0_27_69
*849 FILLER_0_27_81
*850 FILLER_0_27_93
*851 FILLER_0_28_109
*852 FILLER_0_28_121
*853 FILLER_0_28_133
*854 FILLER_0_28_139
*855 FILLER_0_28_141
*856 FILLER_0_28_15
*857 FILLER_0_28_153
*858 FILLER_0_28_165
*859 FILLER_0_28_177
*860 FILLER_0_28_189
*861 FILLER_0_28_195
*862 FILLER_0_28_197
*863 FILLER_0_28_209
*864 FILLER_0_28_221
*865 FILLER_0_28_233
*866 FILLER_0_28_245
*867 FILLER_0_28_251
*868 FILLER_0_28_253
*869 FILLER_0_28_265
*870 FILLER_0_28_27
*871 FILLER_0_28_277
*872 FILLER_0_28_289
*873 FILLER_0_28_29
*874 FILLER_0_28_3
*875 FILLER_0_28_301
*876 FILLER_0_28_307
*877 FILLER_0_28_309
*878 FILLER_0_28_321
*879 FILLER_0_28_333
*880 FILLER_0_28_41
*881 FILLER_0_28_53
*882 FILLER_0_28_65
*883 FILLER_0_28_77
*884 FILLER_0_28_83
*885 FILLER_0_28_85
*886 FILLER_0_28_97
*887 FILLER_0_29_105
*888 FILLER_0_29_111
*889 FILLER_0_29_113
*890 FILLER_0_29_125
*891 FILLER_0_29_137
*892 FILLER_0_29_149
*893 FILLER_0_29_15
*894 FILLER_0_29_161
*895 FILLER_0_29_167
*896 FILLER_0_29_169
*897 FILLER_0_29_181
*898 FILLER_0_29_193
*899 FILLER_0_29_205
*900 FILLER_0_29_217
*901 FILLER_0_29_223
*902 FILLER_0_29_225
*903 FILLER_0_29_237
*904 FILLER_0_29_249
*905 FILLER_0_29_261
*906 FILLER_0_29_27
*907 FILLER_0_29_273
*908 FILLER_0_29_279
*909 FILLER_0_29_281
*910 FILLER_0_29_293
*911 FILLER_0_29_3
*912 FILLER_0_29_305
*913 FILLER_0_29_317
*914 FILLER_0_29_329
*915 FILLER_0_29_39
*916 FILLER_0_29_51
*917 FILLER_0_29_55
*918 FILLER_0_29_57
*919 FILLER_0_29_69
*920 FILLER_0_29_81
*921 FILLER_0_29_93
*922 FILLER_0_2_109
*923 FILLER_0_2_121
*924 FILLER_0_2_133
*925 FILLER_0_2_139
*926 FILLER_0_2_141
*927 FILLER_0_2_15
*928 FILLER_0_2_153
*929 FILLER_0_2_165
*930 FILLER_0_2_177
*931 FILLER_0_2_189
*932 FILLER_0_2_195
*933 FILLER_0_2_197
*934 FILLER_0_2_209
*935 FILLER_0_2_221
*936 FILLER_0_2_233
*937 FILLER_0_2_245
*938 FILLER_0_2_251
*939 FILLER_0_2_253
*940 FILLER_0_2_265
*941 FILLER_0_2_27
*942 FILLER_0_2_277
*943 FILLER_0_2_289
*944 FILLER_0_2_29
*945 FILLER_0_2_3
*946 FILLER_0_2_301
*947 FILLER_0_2_307
*948 FILLER_0_2_309
*949 FILLER_0_2_321
*950 FILLER_0_2_333
*951 FILLER_0_2_41
*952 FILLER_0_2_53
*953 FILLER_0_2_65
*954 FILLER_0_2_77
*955 FILLER_0_2_83
*956 FILLER_0_2_85
*957 FILLER_0_2_97
*958 FILLER_0_30_109
*959 FILLER_0_30_121
*960 FILLER_0_30_133
*961 FILLER_0_30_139
*962 FILLER_0_30_141
*963 FILLER_0_30_15
*964 FILLER_0_30_153
*965 FILLER_0_30_165
*966 FILLER_0_30_177
*967 FILLER_0_30_189
*968 FILLER_0_30_195
*969 FILLER_0_30_197
*970 FILLER_0_30_209
*971 FILLER_0_30_221
*972 FILLER_0_30_233
*973 FILLER_0_30_245
*974 FILLER_0_30_251
*975 FILLER_0_30_253
*976 FILLER_0_30_265
*977 FILLER_0_30_27
*978 FILLER_0_30_277
*979 FILLER_0_30_289
*980 FILLER_0_30_29
*981 FILLER_0_30_3
*982 FILLER_0_30_301
*983 FILLER_0_30_307
*984 FILLER_0_30_309
*985 FILLER_0_30_321
*986 FILLER_0_30_333
*987 FILLER_0_30_41
*988 FILLER_0_30_53
*989 FILLER_0_30_65
*990 FILLER_0_30_77
*991 FILLER_0_30_83
*992 FILLER_0_30_85
*993 FILLER_0_30_97
*994 FILLER_0_31_105
*995 FILLER_0_31_111
*996 FILLER_0_31_113
*997 FILLER_0_31_125
*998 FILLER_0_31_137
*999 FILLER_0_31_149
*1000 FILLER_0_31_15
*1001 FILLER_0_31_161
*1002 FILLER_0_31_167
*1003 FILLER_0_31_169
*1004 FILLER_0_31_181
*1005 FILLER_0_31_205
*1006 FILLER_0_31_213
*1007 FILLER_0_31_219
*1008 FILLER_0_31_223
*1009 FILLER_0_31_225
*1010 FILLER_0_31_233
*1011 FILLER_0_31_241
*1012 FILLER_0_31_253
*1013 FILLER_0_31_265
*1014 FILLER_0_31_27
*1015 FILLER_0_31_277
*1016 FILLER_0_31_281
*1017 FILLER_0_31_293
*1018 FILLER_0_31_3
*1019 FILLER_0_31_305
*1020 FILLER_0_31_317
*1021 FILLER_0_31_329
*1022 FILLER_0_31_39
*1023 FILLER_0_31_51
*1024 FILLER_0_31_55
*1025 FILLER_0_31_57
*1026 FILLER_0_31_69
*1027 FILLER_0_31_81
*1028 FILLER_0_31_93
*1029 FILLER_0_32_109
*1030 FILLER_0_32_121
*1031 FILLER_0_32_133
*1032 FILLER_0_32_139
*1033 FILLER_0_32_141
*1034 FILLER_0_32_15
*1035 FILLER_0_32_153
*1036 FILLER_0_32_165
*1037 FILLER_0_32_173
*1038 FILLER_0_32_183
*1039 FILLER_0_32_195
*1040 FILLER_0_32_197
*1041 FILLER_0_32_207
*1042 FILLER_0_32_230
*1043 FILLER_0_32_250
*1044 FILLER_0_32_256
*1045 FILLER_0_32_264
*1046 FILLER_0_32_27
*1047 FILLER_0_32_276
*1048 FILLER_0_32_280
*1049 FILLER_0_32_287
*1050 FILLER_0_32_29
*1051 FILLER_0_32_299
*1052 FILLER_0_32_3
*1053 FILLER_0_32_307
*1054 FILLER_0_32_309
*1055 FILLER_0_32_321
*1056 FILLER_0_32_333
*1057 FILLER_0_32_41
*1058 FILLER_0_32_53
*1059 FILLER_0_32_65
*1060 FILLER_0_32_77
*1061 FILLER_0_32_83
*1062 FILLER_0_32_85
*1063 FILLER_0_32_97
*1064 FILLER_0_33_105
*1065 FILLER_0_33_111
*1066 FILLER_0_33_113
*1067 FILLER_0_33_125
*1068 FILLER_0_33_137
*1069 FILLER_0_33_149
*1070 FILLER_0_33_15
*1071 FILLER_0_33_161
*1072 FILLER_0_33_167
*1073 FILLER_0_33_169
*1074 FILLER_0_33_182
*1075 FILLER_0_33_194
*1076 FILLER_0_33_212
*1077 FILLER_0_33_230
*1078 FILLER_0_33_242
*1079 FILLER_0_33_254
*1080 FILLER_0_33_266
*1081 FILLER_0_33_27
*1082 FILLER_0_33_272
*1083 FILLER_0_33_298
*1084 FILLER_0_33_3
*1085 FILLER_0_33_310
*1086 FILLER_0_33_322
*1087 FILLER_0_33_334
*1088 FILLER_0_33_39
*1089 FILLER_0_33_51
*1090 FILLER_0_33_55
*1091 FILLER_0_33_57
*1092 FILLER_0_33_69
*1093 FILLER_0_33_81
*1094 FILLER_0_33_93
*1095 FILLER_0_34_109
*1096 FILLER_0_34_121
*1097 FILLER_0_34_133
*1098 FILLER_0_34_139
*1099 FILLER_0_34_141
*1100 FILLER_0_34_15
*1101 FILLER_0_34_153
*1102 FILLER_0_34_162
*1103 FILLER_0_34_174
*1104 FILLER_0_34_179
*1105 FILLER_0_34_190
*1106 FILLER_0_34_197
*1107 FILLER_0_34_205
*1108 FILLER_0_34_215
*1109 FILLER_0_34_225
*1110 FILLER_0_34_233
*1111 FILLER_0_34_251
*1112 FILLER_0_34_253
*1113 FILLER_0_34_259
*1114 FILLER_0_34_27
*1115 FILLER_0_34_275
*1116 FILLER_0_34_279
*1117 FILLER_0_34_289
*1118 FILLER_0_34_29
*1119 FILLER_0_34_3
*1120 FILLER_0_34_301
*1121 FILLER_0_34_307
*1122 FILLER_0_34_309
*1123 FILLER_0_34_321
*1124 FILLER_0_34_333
*1125 FILLER_0_34_41
*1126 FILLER_0_34_53
*1127 FILLER_0_34_65
*1128 FILLER_0_34_77
*1129 FILLER_0_34_83
*1130 FILLER_0_34_85
*1131 FILLER_0_34_97
*1132 FILLER_0_35_105
*1133 FILLER_0_35_111
*1134 FILLER_0_35_113
*1135 FILLER_0_35_125
*1136 FILLER_0_35_137
*1137 FILLER_0_35_15
*1138 FILLER_0_35_169
*1139 FILLER_0_35_187
*1140 FILLER_0_35_215
*1141 FILLER_0_35_223
*1142 FILLER_0_35_225
*1143 FILLER_0_35_233
*1144 FILLER_0_35_248
*1145 FILLER_0_35_256
*1146 FILLER_0_35_27
*1147 FILLER_0_35_272
*1148 FILLER_0_35_276
*1149 FILLER_0_35_298
*1150 FILLER_0_35_3
*1151 FILLER_0_35_310
*1152 FILLER_0_35_322
*1153 FILLER_0_35_334
*1154 FILLER_0_35_39
*1155 FILLER_0_35_51
*1156 FILLER_0_35_55
*1157 FILLER_0_35_57
*1158 FILLER_0_35_69
*1159 FILLER_0_35_81
*1160 FILLER_0_35_93
*1161 FILLER_0_36_109
*1162 FILLER_0_36_121
*1163 FILLER_0_36_133
*1164 FILLER_0_36_139
*1165 FILLER_0_36_141
*1166 FILLER_0_36_15
*1167 FILLER_0_36_155
*1168 FILLER_0_36_162
*1169 FILLER_0_36_170
*1170 FILLER_0_36_176
*1171 FILLER_0_36_194
*1172 FILLER_0_36_197
*1173 FILLER_0_36_209
*1174 FILLER_0_36_222
*1175 FILLER_0_36_236
*1176 FILLER_0_36_257
*1177 FILLER_0_36_269
*1178 FILLER_0_36_27
*1179 FILLER_0_36_281
*1180 FILLER_0_36_288
*1181 FILLER_0_36_29
*1182 FILLER_0_36_3
*1183 FILLER_0_36_300
*1184 FILLER_0_36_309
*1185 FILLER_0_36_321
*1186 FILLER_0_36_333
*1187 FILLER_0_36_41
*1188 FILLER_0_36_53
*1189 FILLER_0_36_65
*1190 FILLER_0_36_77
*1191 FILLER_0_36_83
*1192 FILLER_0_36_85
*1193 FILLER_0_36_97
*1194 FILLER_0_37_105
*1195 FILLER_0_37_111
*1196 FILLER_0_37_113
*1197 FILLER_0_37_125
*1198 FILLER_0_37_137
*1199 FILLER_0_37_145
*1200 FILLER_0_37_15
*1201 FILLER_0_37_186
*1202 FILLER_0_37_199
*1203 FILLER_0_37_222
*1204 FILLER_0_37_230
*1205 FILLER_0_37_259
*1206 FILLER_0_37_268
*1207 FILLER_0_37_27
*1208 FILLER_0_37_273
*1209 FILLER_0_37_296
*1210 FILLER_0_37_3
*1211 FILLER_0_37_308
*1212 FILLER_0_37_320
*1213 FILLER_0_37_332
*1214 FILLER_0_37_39
*1215 FILLER_0_37_51
*1216 FILLER_0_37_55
*1217 FILLER_0_37_57
*1218 FILLER_0_37_69
*1219 FILLER_0_37_81
*1220 FILLER_0_37_93
*1221 FILLER_0_38_10
*1222 FILLER_0_38_102
*1223 FILLER_0_38_106
*1224 FILLER_0_38_110
*1225 FILLER_0_38_113
*1226 FILLER_0_38_118
*1227 FILLER_0_38_122
*1228 FILLER_0_38_126
*1229 FILLER_0_38_130
*1230 FILLER_0_38_134
*1231 FILLER_0_38_14
*1232 FILLER_0_38_144
*1233 FILLER_0_38_152
*1234 FILLER_0_38_158
*1235 FILLER_0_38_166
*1236 FILLER_0_38_169
*1237 FILLER_0_38_175
*1238 FILLER_0_38_18
*1239 FILLER_0_38_183
*1240 FILLER_0_38_194
*1241 FILLER_0_38_197
*1242 FILLER_0_38_218
*1243 FILLER_0_38_22
*1244 FILLER_0_38_225
*1245 FILLER_0_38_231
*1246 FILLER_0_38_250
*1247 FILLER_0_38_257
*1248 FILLER_0_38_265
*1249 FILLER_0_38_271
*1250 FILLER_0_38_278
*1251 FILLER_0_38_287
*1252 FILLER_0_38_303
*1253 FILLER_0_38_307
*1254 FILLER_0_38_312
*1255 FILLER_0_38_319
*1256 FILLER_0_38_32
*1257 FILLER_0_38_331
*1258 FILLER_0_38_38
*1259 FILLER_0_38_42
*1260 FILLER_0_38_46
*1261 FILLER_0_38_50
*1262 FILLER_0_38_54
*1263 FILLER_0_38_57
*1264 FILLER_0_38_6
*1265 FILLER_0_38_62
*1266 FILLER_0_38_66
*1267 FILLER_0_38_70
*1268 FILLER_0_38_74
*1269 FILLER_0_38_78
*1270 FILLER_0_38_88
*1271 FILLER_0_38_94
*1272 FILLER_0_38_98
*1273 FILLER_0_3_105
*1274 FILLER_0_3_111
*1275 FILLER_0_3_113
*1276 FILLER_0_3_125
*1277 FILLER_0_3_137
*1278 FILLER_0_3_149
*1279 FILLER_0_3_15
*1280 FILLER_0_3_161
*1281 FILLER_0_3_167
*1282 FILLER_0_3_169
*1283 FILLER_0_3_181
*1284 FILLER_0_3_193
*1285 FILLER_0_3_205
*1286 FILLER_0_3_217
*1287 FILLER_0_3_223
*1288 FILLER_0_3_225
*1289 FILLER_0_3_237
*1290 FILLER_0_3_249
*1291 FILLER_0_3_261
*1292 FILLER_0_3_27
*1293 FILLER_0_3_273
*1294 FILLER_0_3_279
*1295 FILLER_0_3_281
*1296 FILLER_0_3_293
*1297 FILLER_0_3_3
*1298 FILLER_0_3_305
*1299 FILLER_0_3_317
*1300 FILLER_0_3_329
*1301 FILLER_0_3_39
*1302 FILLER_0_3_51
*1303 FILLER_0_3_55
*1304 FILLER_0_3_57
*1305 FILLER_0_3_69
*1306 FILLER_0_3_81
*1307 FILLER_0_3_93
*1308 FILLER_0_4_109
*1309 FILLER_0_4_121
*1310 FILLER_0_4_133
*1311 FILLER_0_4_139
*1312 FILLER_0_4_141
*1313 FILLER_0_4_15
*1314 FILLER_0_4_153
*1315 FILLER_0_4_165
*1316 FILLER_0_4_177
*1317 FILLER_0_4_189
*1318 FILLER_0_4_195
*1319 FILLER_0_4_197
*1320 FILLER_0_4_209
*1321 FILLER_0_4_221
*1322 FILLER_0_4_233
*1323 FILLER_0_4_245
*1324 FILLER_0_4_251
*1325 FILLER_0_4_253
*1326 FILLER_0_4_265
*1327 FILLER_0_4_27
*1328 FILLER_0_4_277
*1329 FILLER_0_4_289
*1330 FILLER_0_4_29
*1331 FILLER_0_4_3
*1332 FILLER_0_4_301
*1333 FILLER_0_4_307
*1334 FILLER_0_4_309
*1335 FILLER_0_4_321
*1336 FILLER_0_4_333
*1337 FILLER_0_4_41
*1338 FILLER_0_4_53
*1339 FILLER_0_4_65
*1340 FILLER_0_4_77
*1341 FILLER_0_4_83
*1342 FILLER_0_4_85
*1343 FILLER_0_4_97
*1344 FILLER_0_5_105
*1345 FILLER_0_5_111
*1346 FILLER_0_5_113
*1347 FILLER_0_5_125
*1348 FILLER_0_5_137
*1349 FILLER_0_5_149
*1350 FILLER_0_5_15
*1351 FILLER_0_5_161
*1352 FILLER_0_5_167
*1353 FILLER_0_5_169
*1354 FILLER_0_5_181
*1355 FILLER_0_5_193
*1356 FILLER_0_5_205
*1357 FILLER_0_5_217
*1358 FILLER_0_5_223
*1359 FILLER_0_5_225
*1360 FILLER_0_5_237
*1361 FILLER_0_5_249
*1362 FILLER_0_5_261
*1363 FILLER_0_5_27
*1364 FILLER_0_5_273
*1365 FILLER_0_5_279
*1366 FILLER_0_5_281
*1367 FILLER_0_5_293
*1368 FILLER_0_5_3
*1369 FILLER_0_5_305
*1370 FILLER_0_5_317
*1371 FILLER_0_5_329
*1372 FILLER_0_5_39
*1373 FILLER_0_5_51
*1374 FILLER_0_5_55
*1375 FILLER_0_5_57
*1376 FILLER_0_5_69
*1377 FILLER_0_5_81
*1378 FILLER_0_5_93
*1379 FILLER_0_6_109
*1380 FILLER_0_6_121
*1381 FILLER_0_6_133
*1382 FILLER_0_6_139
*1383 FILLER_0_6_141
*1384 FILLER_0_6_15
*1385 FILLER_0_6_153
*1386 FILLER_0_6_165
*1387 FILLER_0_6_177
*1388 FILLER_0_6_189
*1389 FILLER_0_6_195
*1390 FILLER_0_6_197
*1391 FILLER_0_6_209
*1392 FILLER_0_6_221
*1393 FILLER_0_6_233
*1394 FILLER_0_6_245
*1395 FILLER_0_6_251
*1396 FILLER_0_6_253
*1397 FILLER_0_6_265
*1398 FILLER_0_6_27
*1399 FILLER_0_6_277
*1400 FILLER_0_6_289
*1401 FILLER_0_6_29
*1402 FILLER_0_6_3
*1403 FILLER_0_6_301
*1404 FILLER_0_6_307
*1405 FILLER_0_6_309
*1406 FILLER_0_6_321
*1407 FILLER_0_6_333
*1408 FILLER_0_6_41
*1409 FILLER_0_6_53
*1410 FILLER_0_6_65
*1411 FILLER_0_6_77
*1412 FILLER_0_6_83
*1413 FILLER_0_6_85
*1414 FILLER_0_6_97
*1415 FILLER_0_7_105
*1416 FILLER_0_7_111
*1417 FILLER_0_7_113
*1418 FILLER_0_7_125
*1419 FILLER_0_7_137
*1420 FILLER_0_7_149
*1421 FILLER_0_7_15
*1422 FILLER_0_7_161
*1423 FILLER_0_7_167
*1424 FILLER_0_7_169
*1425 FILLER_0_7_181
*1426 FILLER_0_7_193
*1427 FILLER_0_7_205
*1428 FILLER_0_7_217
*1429 FILLER_0_7_223
*1430 FILLER_0_7_225
*1431 FILLER_0_7_237
*1432 FILLER_0_7_249
*1433 FILLER_0_7_261
*1434 FILLER_0_7_27
*1435 FILLER_0_7_273
*1436 FILLER_0_7_279
*1437 FILLER_0_7_281
*1438 FILLER_0_7_293
*1439 FILLER_0_7_3
*1440 FILLER_0_7_305
*1441 FILLER_0_7_317
*1442 FILLER_0_7_329
*1443 FILLER_0_7_39
*1444 FILLER_0_7_51
*1445 FILLER_0_7_55
*1446 FILLER_0_7_57
*1447 FILLER_0_7_69
*1448 FILLER_0_7_81
*1449 FILLER_0_7_93
*1450 FILLER_0_8_109
*1451 FILLER_0_8_121
*1452 FILLER_0_8_133
*1453 FILLER_0_8_139
*1454 FILLER_0_8_141
*1455 FILLER_0_8_15
*1456 FILLER_0_8_153
*1457 FILLER_0_8_165
*1458 FILLER_0_8_177
*1459 FILLER_0_8_189
*1460 FILLER_0_8_195
*1461 FILLER_0_8_197
*1462 FILLER_0_8_209
*1463 FILLER_0_8_221
*1464 FILLER_0_8_233
*1465 FILLER_0_8_245
*1466 FILLER_0_8_251
*1467 FILLER_0_8_253
*1468 FILLER_0_8_265
*1469 FILLER_0_8_27
*1470 FILLER_0_8_277
*1471 FILLER_0_8_289
*1472 FILLER_0_8_29
*1473 FILLER_0_8_3
*1474 FILLER_0_8_301
*1475 FILLER_0_8_307
*1476 FILLER_0_8_309
*1477 FILLER_0_8_321
*1478 FILLER_0_8_333
*1479 FILLER_0_8_41
*1480 FILLER_0_8_53
*1481 FILLER_0_8_65
*1482 FILLER_0_8_77
*1483 FILLER_0_8_83
*1484 FILLER_0_8_85
*1485 FILLER_0_8_97
*1486 FILLER_0_9_105
*1487 FILLER_0_9_111
*1488 FILLER_0_9_113
*1489 FILLER_0_9_125
*1490 FILLER_0_9_137
*1491 FILLER_0_9_149
*1492 FILLER_0_9_15
*1493 FILLER_0_9_161
*1494 FILLER_0_9_167
*1495 FILLER_0_9_169