*SPEF "ieee 1481-1999"
*DESIGN "tt_um_alu"
*DATE "19:52:27 Monday April 15, 2024"
*VENDOR "The OpenROAD Project"
*PROGRAM "OpenROAD"
*VERSION "0889970d1790a2617e69f253221b8bd7626e51dc"
*DESIGN_FLOW "NAME_SCOPE LOCAL" "PIN_CAP NONE"
*DIVIDER /
*DELIMITER :
*BUS_DELIMITER []
*T_UNIT 1 NS
*C_UNIT 1 PF
*R_UNIT 1 OHM
*L_UNIT 1 HENRY

*NAME_MAP
*3 clk
*4 ena
*5 rst_n
*6 ui_in[0]
*7 ui_in[1]
*8 ui_in[2]
*9 ui_in[3]
*10 ui_in[4]
*11 ui_in[5]
*12 ui_in[6]
*13 ui_in[7]
*14 uio_in[0]
*15 uio_in[1]
*16 uio_in[2]
*17 uio_in[3]
*18 uio_in[4]
*19 uio_in[5]
*20 uio_in[6]
*21 uio_in[7]
*22 net21
*23 net22
*24 net23
*25 net24
*26 net25
*27 net40
*28 net41
*29 net42
*30 net26
*31 net27
*32 net28
*33 net29
*34 net30
*35 uio_out[5]
*36 uio_out[6]
*37 net31
*38 net32
*39 net33
*40 net34
*41 net35
*42 net36
*43 net37
*44 net38
*45 net39
*46 _000_
*47 _001_
*48 _002_
*49 _003_
*50 _004_
*51 _005_
*52 _006_
*53 _007_
*54 _008_
*55 _009_
*56 _010_
*57 _011_
*58 _012_
*59 _013_
*60 _014_
*61 _015_
*62 _016_
*63 _017_
*64 _018_
*65 _019_
*66 _020_
*67 _021_
*68 _022_
*69 _023_
*70 _024_
*71 _025_
*72 _026_
*73 _027_
*74 _028_
*75 _029_
*76 _030_
*77 _031_
*78 _032_
*79 _033_
*80 _034_
*81 _035_
*82 _036_
*83 _037_
*84 _038_
*85 _039_
*86 _040_
*87 _041_
*88 _042_
*89 _043_
*90 _044_
*91 _045_
*92 _046_
*93 _047_
*94 _048_
*95 _049_
*96 _050_
*97 _051_
*98 _052_
*99 _053_
*100 _054_
*101 _055_
*102 _056_
*103 _057_
*104 _058_
*105 _059_
*106 _060_
*107 _061_
*108 _062_
*109 _063_
*110 _064_
*111 _065_
*112 _066_
*113 _067_
*114 _068_
*115 _069_
*116 _070_
*117 _071_
*118 _072_
*119 _073_
*120 _074_
*121 _075_
*122 _076_
*123 _077_
*124 _078_
*125 _079_
*126 _080_
*127 _081_
*128 _082_
*129 _083_
*130 _084_
*131 _085_
*132 _086_
*133 _087_
*134 _088_
*135 _089_
*136 _090_
*137 _091_
*138 _092_
*139 _093_
*140 _094_
*141 _095_
*142 _096_
*143 _097_
*144 _098_
*145 _099_
*146 _100_
*147 _101_
*148 _102_
*149 _103_
*150 _104_
*151 _105_
*152 _106_
*153 _107_
*154 _108_
*155 _109_
*156 _110_
*157 _111_
*158 _112_
*159 _113_
*160 _114_
*161 _115_
*162 _116_
*163 _117_
*164 _118_
*165 _119_
*166 _120_
*167 _121_
*168 _122_
*169 _123_
*170 _124_
*171 _125_
*172 _126_
*173 _127_
*174 _128_
*175 _129_
*176 _130_
*177 _131_
*178 _132_
*179 _133_
*180 _134_
*181 _135_
*182 _136_
*183 _137_
*184 _138_
*185 _139_
*186 _140_
*187 _141_
*188 _142_
*189 _143_
*190 _144_
*191 _145_
*192 _146_
*193 _147_
*194 _148_
*195 _149_
*196 _150_
*197 _151_
*198 _152_
*199 _153_
*200 _154_
*201 _155_
*202 _156_
*203 _157_
*204 _158_
*205 _159_
*206 _160_
*207 _161_
*208 _162_
*209 _163_
*210 _164_
*211 _165_
*212 _166_
*213 _167_
*214 _168_
*215 _169_
*216 _170_
*217 _171_
*218 _172_
*219 _173_
*220 _174_
*221 _175_
*222 _176_
*223 _177_
*224 _178_
*225 _179_
*226 _180_
*227 _181_
*228 _182_
*229 _183_
*230 _184_
*231 _185_
*232 _186_
*233 _187_
*234 _188_
*235 _189_
*236 _190_
*237 _191_
*238 _192_
*239 _193_
*240 _194_
*241 _195_
*242 _196_
*243 _197_
*244 _198_
*245 _199_
*246 _200_
*247 _201_
*248 _202_
*249 _203_
*250 _204_
*251 _205_
*252 _206_
*253 _207_
*254 _208_
*255 _209_
*256 _210_
*257 _211_
*258 _212_
*259 _213_
*260 _214_
*261 _215_
*262 _216_
*263 _217_
*264 _218_
*265 _219_
*266 _220_
*267 _221_
*268 _222_
*269 _223_
*270 _224_
*271 _225_
*272 _226_
*273 _227_
*274 _228_
*275 _229_
*276 _230_
*277 _231_
*278 _232_
*279 _233_
*280 _234_
*281 _235_
*282 _236_
*283 _237_
*284 _238_
*285 _239_
*286 _240_
*287 _241_
*288 _242_
*289 _243_
*290 _244_
*291 _245_
*292 _246_
*293 _247_
*294 _248_
*295 _249_
*296 _250_
*297 _251_
*298 _252_
*299 _253_
*300 _254_
*301 _255_
*302 _256_
*303 _257_
*304 _258_
*305 _259_
*306 _260_
*307 _261_
*308 _262_
*309 _263_
*310 _264_
*311 _265_
*312 _266_
*313 _267_
*314 _268_
*315 _269_
*316 _270_
*317 _271_
*318 _272_
*319 _273_
*320 _274_
*321 _275_
*322 _276_
*323 _277_
*324 _278_
*325 _279_
*326 _280_
*327 _281_
*328 _282_
*329 _283_
*330 _284_
*331 _285_
*332 _286_
*333 _287_
*334 _288_
*335 _289_
*336 _290_
*337 _291_
*338 _292_
*339 _293_
*340 _294_
*341 _295_
*342 _296_
*343 _297_
*344 _298_
*345 _299_
*346 _300_
*347 _301_
*348 _302_
*349 _303_
*350 _304_
*351 _305_
*352 _306_
*353 _307_
*354 _308_
*355 _309_
*356 _310_
*357 _311_
*358 _312_
*359 _313_
*360 _314_
*361 _315_
*362 _316_
*363 _317_
*364 _318_
*365 _319_
*366 _320_
*367 _321_
*368 _322_
*369 _323_
*370 _324_
*371 _325_
*372 _326_
*373 _327_
*374 _328_
*375 _329_
*376 _330_
*377 _331_
*378 _332_
*379 _333_
*380 four_bit_alu\.a\[0\]
*381 four_bit_alu\.a\[1\]
*382 four_bit_alu\.a\[2\]
*383 four_bit_alu\.a\[3\]
*384 four_bit_alu\.alu_inst\.b\[0\]
*385 four_bit_alu\.alu_inst\.b\[1\]
*386 four_bit_alu\.alu_inst\.b\[2\]
*387 four_bit_alu\.alu_inst\.b\[3\]
*388 four_bit_alu\.alu_inst\.internal_result\[0\]
*389 four_bit_alu\.alu_inst\.internal_result\[1\]
*390 four_bit_alu\.alu_inst\.internal_result\[2\]
*391 four_bit_alu\.alu_inst\.internal_result\[3\]
*392 four_bit_alu\.alu_inst\.internal_result\[4\]
*393 four_bit_alu\.alu_inst\.internal_result\[5\]
*394 four_bit_alu\.alu_inst\.internal_result\[6\]
*395 four_bit_alu\.alu_inst\.internal_result\[7\]
*396 four_bit_alu\.uart_inst\.bit_counter\[0\]
*397 four_bit_alu\.uart_inst\.bit_counter\[1\]
*398 four_bit_alu\.uart_inst\.bit_counter\[2\]
*399 four_bit_alu\.uart_inst\.bit_counter\[3\]
*400 four_bit_alu\.uart_inst\.cycle_counter\[0\]
*401 four_bit_alu\.uart_inst\.cycle_counter\[10\]
*402 four_bit_alu\.uart_inst\.cycle_counter\[11\]
*403 four_bit_alu\.uart_inst\.cycle_counter\[12\]
*404 four_bit_alu\.uart_inst\.cycle_counter\[13\]
*405 four_bit_alu\.uart_inst\.cycle_counter\[1\]
*406 four_bit_alu\.uart_inst\.cycle_counter\[2\]
*407 four_bit_alu\.uart_inst\.cycle_counter\[3\]
*408 four_bit_alu\.uart_inst\.cycle_counter\[4\]
*409 four_bit_alu\.uart_inst\.cycle_counter\[5\]
*410 four_bit_alu\.uart_inst\.cycle_counter\[6\]
*411 four_bit_alu\.uart_inst\.cycle_counter\[7\]
*412 four_bit_alu\.uart_inst\.cycle_counter\[8\]
*413 four_bit_alu\.uart_inst\.cycle_counter\[9\]
*414 four_bit_alu\.uart_inst\.data_to_send\[0\]
*415 four_bit_alu\.uart_inst\.data_to_send\[1\]
*416 four_bit_alu\.uart_inst\.data_to_send\[2\]
*417 four_bit_alu\.uart_inst\.data_to_send\[3\]
*418 four_bit_alu\.uart_inst\.data_to_send\[4\]
*419 four_bit_alu\.uart_inst\.data_to_send\[5\]
*420 four_bit_alu\.uart_inst\.data_to_send\[6\]
*421 four_bit_alu\.uart_inst\.data_to_send\[7\]
*422 four_bit_alu\.uart_inst\.fsm_state\[0\]
*423 four_bit_alu\.uart_inst\.fsm_state\[1\]
*424 four_bit_alu\.uart_inst\.txd_reg
*425 four_bit_alu\.uart_inst\.uartbusy
*426 net1
*427 net10
*428 net11
*429 net12
*430 net13
*431 net14
*432 net15
*433 net16
*434 net17
*435 net18
*436 net19
*437 net2
*438 net20
*439 net3
*440 net4
*441 net5
*442 net6
*443 net7
*444 net8
*445 net9
*446 FILLER_0_0_109
*447 FILLER_0_0_113
*448 FILLER_0_0_125
*449 FILLER_0_0_137
*450 FILLER_0_0_141
*451 FILLER_0_0_15
*452 FILLER_0_0_153
*453 FILLER_0_0_165
*454 FILLER_0_0_169
*455 FILLER_0_0_181
*456 FILLER_0_0_193
*457 FILLER_0_0_197
*458 FILLER_0_0_209
*459 FILLER_0_0_221
*460 FILLER_0_0_225
*461 FILLER_0_0_237
*462 FILLER_0_0_249
*463 FILLER_0_0_253
*464 FILLER_0_0_265
*465 FILLER_0_0_27
*466 FILLER_0_0_277
*467 FILLER_0_0_281
*468 FILLER_0_0_29
*469 FILLER_0_0_293
*470 FILLER_0_0_3
*471 FILLER_0_0_305
*472 FILLER_0_0_309
*473 FILLER_0_0_321
*474 FILLER_0_0_333
*475 FILLER_0_0_41
*476 FILLER_0_0_53
*477 FILLER_0_0_57
*478 FILLER_0_0_69
*479 FILLER_0_0_81
*480 FILLER_0_0_85
*481 FILLER_0_0_97
*482 FILLER_0_10_109
*483 FILLER_0_10_121
*484 FILLER_0_10_133
*485 FILLER_0_10_139
*486 FILLER_0_10_141
*487 FILLER_0_10_15
*488 FILLER_0_10_153
*489 FILLER_0_10_165
*490 FILLER_0_10_177
*491 FILLER_0_10_189
*492 FILLER_0_10_195
*493 FILLER_0_10_197
*494 FILLER_0_10_209
*495 FILLER_0_10_221
*496 FILLER_0_10_233
*497 FILLER_0_10_245
*498 FILLER_0_10_251
*499 FILLER_0_10_253
*500 FILLER_0_10_265
*501 FILLER_0_10_27
*502 FILLER_0_10_277
*503 FILLER_0_10_289
*504 FILLER_0_10_29
*505 FILLER_0_10_3
*506 FILLER_0_10_301
*507 FILLER_0_10_307
*508 FILLER_0_10_309
*509 FILLER_0_10_321
*510 FILLER_0_10_333
*511 FILLER_0_10_41
*512 FILLER_0_10_53
*513 FILLER_0_10_65
*514 FILLER_0_10_77
*515 FILLER_0_10_83
*516 FILLER_0_10_85
*517 FILLER_0_10_97
*518 FILLER_0_11_105
*519 FILLER_0_11_111
*520 FILLER_0_11_113
*521 FILLER_0_11_125
*522 FILLER_0_11_137
*523 FILLER_0_11_149
*524 FILLER_0_11_15
*525 FILLER_0_11_161
*526 FILLER_0_11_167
*527 FILLER_0_11_169
*528 FILLER_0_11_181
*529 FILLER_0_11_193
*530 FILLER_0_11_205
*531 FILLER_0_11_217
*532 FILLER_0_11_223
*533 FILLER_0_11_225
*534 FILLER_0_11_237
*535 FILLER_0_11_249
*536 FILLER_0_11_261
*537 FILLER_0_11_27
*538 FILLER_0_11_273
*539 FILLER_0_11_279
*540 FILLER_0_11_281
*541 FILLER_0_11_293
*542 FILLER_0_11_3
*543 FILLER_0_11_305
*544 FILLER_0_11_317
*545 FILLER_0_11_329
*546 FILLER_0_11_39
*547 FILLER_0_11_51
*548 FILLER_0_11_55
*549 FILLER_0_11_57
*550 FILLER_0_11_69
*551 FILLER_0_11_81
*552 FILLER_0_11_93
*553 FILLER_0_12_109
*554 FILLER_0_12_121
*555 FILLER_0_12_133
*556 FILLER_0_12_139
*557 FILLER_0_12_141
*558 FILLER_0_12_15
*559 FILLER_0_12_153
*560 FILLER_0_12_165
*561 FILLER_0_12_177
*562 FILLER_0_12_189
*563 FILLER_0_12_195
*564 FILLER_0_12_197
*565 FILLER_0_12_209
*566 FILLER_0_12_221
*567 FILLER_0_12_233
*568 FILLER_0_12_245
*569 FILLER_0_12_251
*570 FILLER_0_12_253
*571 FILLER_0_12_265
*572 FILLER_0_12_27
*573 FILLER_0_12_277
*574 FILLER_0_12_289
*575 FILLER_0_12_29
*576 FILLER_0_12_3
*577 FILLER_0_12_301
*578 FILLER_0_12_307
*579 FILLER_0_12_309
*580 FILLER_0_12_321
*581 FILLER_0_12_333
*582 FILLER_0_12_41
*583 FILLER_0_12_53
*584 FILLER_0_12_65
*585 FILLER_0_12_77
*586 FILLER_0_12_83
*587 FILLER_0_12_85
*588 FILLER_0_12_97
*589 FILLER_0_13_105
*590 FILLER_0_13_111
*591 FILLER_0_13_113
*592 FILLER_0_13_125
*593 FILLER_0_13_137
*594 FILLER_0_13_149
*595 FILLER_0_13_15
*596 FILLER_0_13_161
*597 FILLER_0_13_167
*598 FILLER_0_13_169
*599 FILLER_0_13_181
*600 FILLER_0_13_193
*601 FILLER_0_13_205
*602 FILLER_0_13_217
*603 FILLER_0_13_223
*604 FILLER_0_13_225
*605 FILLER_0_13_237
*606 FILLER_0_13_249
*607 FILLER_0_13_261
*608 FILLER_0_13_27
*609 FILLER_0_13_273
*610 FILLER_0_13_279
*611 FILLER_0_13_281
*612 FILLER_0_13_293
*613 FILLER_0_13_3
*614 FILLER_0_13_305
*615 FILLER_0_13_317
*616 FILLER_0_13_329
*617 FILLER_0_13_39
*618 FILLER_0_13_51
*619 FILLER_0_13_55
*620 FILLER_0_13_57
*621 FILLER_0_13_69
*622 FILLER_0_13_81
*623 FILLER_0_13_93
*624 FILLER_0_14_109
*625 FILLER_0_14_121
*626 FILLER_0_14_133
*627 FILLER_0_14_139
*628 FILLER_0_14_141
*629 FILLER_0_14_15
*630 FILLER_0_14_153
*631 FILLER_0_14_165
*632 FILLER_0_14_177
*633 FILLER_0_14_189
*634 FILLER_0_14_195
*635 FILLER_0_14_197
*636 FILLER_0_14_209
*637 FILLER_0_14_221
*638 FILLER_0_14_233
*639 FILLER_0_14_245
*640 FILLER_0_14_251
*641 FILLER_0_14_253
*642 FILLER_0_14_265
*643 FILLER_0_14_27
*644 FILLER_0_14_277
*645 FILLER_0_14_289
*646 FILLER_0_14_29
*647 FILLER_0_14_3
*648 FILLER_0_14_301
*649 FILLER_0_14_307
*650 FILLER_0_14_309
*651 FILLER_0_14_321
*652 FILLER_0_14_333
*653 FILLER_0_14_41
*654 FILLER_0_14_53
*655 FILLER_0_14_65
*656 FILLER_0_14_77
*657 FILLER_0_14_83
*658 FILLER_0_14_85
*659 FILLER_0_14_97
*660 FILLER_0_15_105
*661 FILLER_0_15_111
*662 FILLER_0_15_113
*663 FILLER_0_15_125
*664 FILLER_0_15_137
*665 FILLER_0_15_149
*666 FILLER_0_15_15
*667 FILLER_0_15_161
*668 FILLER_0_15_167
*669 FILLER_0_15_169
*670 FILLER_0_15_181
*671 FILLER_0_15_193
*672 FILLER_0_15_205
*673 FILLER_0_15_217
*674 FILLER_0_15_223
*675 FILLER_0_15_225
*676 FILLER_0_15_237
*677 FILLER_0_15_249
*678 FILLER_0_15_261
*679 FILLER_0_15_27
*680 FILLER_0_15_273
*681 FILLER_0_15_279
*682 FILLER_0_15_281
*683 FILLER_0_15_293
*684 FILLER_0_15_3
*685 FILLER_0_15_305
*686 FILLER_0_15_317
*687 FILLER_0_15_329
*688 FILLER_0_15_39
*689 FILLER_0_15_51
*690 FILLER_0_15_55
*691 FILLER_0_15_57
*692 FILLER_0_15_69
*693 FILLER_0_15_81
*694 FILLER_0_15_93
*695 FILLER_0_16_109
*696 FILLER_0_16_121
*697 FILLER_0_16_133
*698 FILLER_0_16_139
*699 FILLER_0_16_141
*700 FILLER_0_16_15
*701 FILLER_0_16_153
*702 FILLER_0_16_165
*703 FILLER_0_16_177
*704 FILLER_0_16_189
*705 FILLER_0_16_195
*706 FILLER_0_16_197
*707 FILLER_0_16_209
*708 FILLER_0_16_221
*709 FILLER_0_16_233
*710 FILLER_0_16_245
*711 FILLER_0_16_251
*712 FILLER_0_16_253
*713 FILLER_0_16_265
*714 FILLER_0_16_27
*715 FILLER_0_16_277
*716 FILLER_0_16_289
*717 FILLER_0_16_29
*718 FILLER_0_16_3
*719 FILLER_0_16_301
*720 FILLER_0_16_307
*721 FILLER_0_16_309
*722 FILLER_0_16_321
*723 FILLER_0_16_333
*724 FILLER_0_16_41
*725 FILLER_0_16_53
*726 FILLER_0_16_65
*727 FILLER_0_16_77
*728 FILLER_0_16_83
*729 FILLER_0_16_85
*730 FILLER_0_16_97
*731 FILLER_0_17_105
*732 FILLER_0_17_111
*733 FILLER_0_17_113
*734 FILLER_0_17_125
*735 FILLER_0_17_137
*736 FILLER_0_17_149
*737 FILLER_0_17_15
*738 FILLER_0_17_161
*739 FILLER_0_17_167
*740 FILLER_0_17_169
*741 FILLER_0_17_181
*742 FILLER_0_17_193
*743 FILLER_0_17_205
*744 FILLER_0_17_217
*745 FILLER_0_17_223
*746 FILLER_0_17_225
*747 FILLER_0_17_237
*748 FILLER_0_17_249
*749 FILLER_0_17_261
*750 FILLER_0_17_27
*751 FILLER_0_17_273
*752 FILLER_0_17_279
*753 FILLER_0_17_281
*754 FILLER_0_17_293
*755 FILLER_0_17_3
*756 FILLER_0_17_305
*757 FILLER_0_17_317
*758 FILLER_0_17_329
*759 FILLER_0_17_39
*760 FILLER_0_17_51
*761 FILLER_0_17_55
*762 FILLER_0_17_57
*763 FILLER_0_17_69
*764 FILLER_0_17_81
*765 FILLER_0_17_93
*766 FILLER_0_18_109
*767 FILLER_0_18_121
*768 FILLER_0_18_133
*769 FILLER_0_18_139
*770 FILLER_0_18_141
*771 FILLER_0_18_15
*772 FILLER_0_18_153
*773 FILLER_0_18_165
*774 FILLER_0_18_177
*775 FILLER_0_18_189
*776 FILLER_0_18_195
*777 FILLER_0_18_197
*778 FILLER_0_18_209
*779 FILLER_0_18_221
*780 FILLER_0_18_233
*781 FILLER_0_18_245
*782 FILLER_0_18_251
*783 FILLER_0_18_253
*784 FILLER_0_18_265
*785 FILLER_0_18_27
*786 FILLER_0_18_277
*787 FILLER_0_18_289
*788 FILLER_0_18_29
*789 FILLER_0_18_3
*790 FILLER_0_18_301
*791 FILLER_0_18_307
*792 FILLER_0_18_309
*793 FILLER_0_18_321
*794 FILLER_0_18_333
*795 FILLER_0_18_41
*796 FILLER_0_18_53
*797 FILLER_0_18_65
*798 FILLER_0_18_77
*799 FILLER_0_18_83
*800 FILLER_0_18_85
*801 FILLER_0_18_97
*802 FILLER_0_19_105
*803 FILLER_0_19_111
*804 FILLER_0_19_113
*805 FILLER_0_19_125
*806 FILLER_0_19_137
*807 FILLER_0_19_149
*808 FILLER_0_19_15
*809 FILLER_0_19_161
*810 FILLER_0_19_167
*811 FILLER_0_19_169
*812 FILLER_0_19_181
*813 FILLER_0_19_193
*814 FILLER_0_19_205
*815 FILLER_0_19_217
*816 FILLER_0_19_223
*817 FILLER_0_19_225
*818 FILLER_0_19_237
*819 FILLER_0_19_249
*820 FILLER_0_19_261
*821 FILLER_0_19_27
*822 FILLER_0_19_273
*823 FILLER_0_19_279
*824 FILLER_0_19_281
*825 FILLER_0_19_293
*826 FILLER_0_19_3
*827 FILLER_0_19_305
*828 FILLER_0_19_317
*829 FILLER_0_19_329
*830 FILLER_0_19_39
*831 FILLER_0_19_51
*832 FILLER_0_19_55
*833 FILLER_0_19_57
*834 FILLER_0_19_69
*835 FILLER_0_19_81
*836 FILLER_0_19_93
*837 FILLER_0_1_105
*838 FILLER_0_1_111
*839 FILLER_0_1_113
*840 FILLER_0_1_125
*841 FILLER_0_1_137
*842 FILLER_0_1_149
*843 FILLER_0_1_15
*844 FILLER_0_1_161
*845 FILLER_0_1_167
*846 FILLER_0_1_169
*847 FILLER_0_1_181
*848 FILLER_0_1_193
*849 FILLER_0_1_205
*850 FILLER_0_1_217
*851 FILLER_0_1_223
*852 FILLER_0_1_225
*853 FILLER_0_1_237
*854 FILLER_0_1_249
*855 FILLER_0_1_261
*856 FILLER_0_1_27
*857 FILLER_0_1_273
*858 FILLER_0_1_279
*859 FILLER_0_1_281
*860 FILLER_0_1_293
*861 FILLER_0_1_3
*862 FILLER_0_1_305
*863 FILLER_0_1_317
*864 FILLER_0_1_329
*865 FILLER_0_1_39
*866 FILLER_0_1_51
*867 FILLER_0_1_55
*868 FILLER_0_1_57
*869 FILLER_0_1_69
*870 FILLER_0_1_81
*871 FILLER_0_1_93
*872 FILLER_0_20_109
*873 FILLER_0_20_121
*874 FILLER_0_20_133
*875 FILLER_0_20_139
*876 FILLER_0_20_141
*877 FILLER_0_20_149
*878 FILLER_0_20_15
*879 FILLER_0_20_154
*880 FILLER_0_20_166
*881 FILLER_0_20_178
*882 FILLER_0_20_190
*883 FILLER_0_20_197
*884 FILLER_0_20_209
*885 FILLER_0_20_221
*886 FILLER_0_20_233
*887 FILLER_0_20_245
*888 FILLER_0_20_251
*889 FILLER_0_20_253
*890 FILLER_0_20_265
*891 FILLER_0_20_27
*892 FILLER_0_20_277
*893 FILLER_0_20_289
*894 FILLER_0_20_29
*895 FILLER_0_20_3
*896 FILLER_0_20_301
*897 FILLER_0_20_307
*898 FILLER_0_20_309
*899 FILLER_0_20_321
*900 FILLER_0_20_333
*901 FILLER_0_20_41
*902 FILLER_0_20_53
*903 FILLER_0_20_65
*904 FILLER_0_20_77
*905 FILLER_0_20_83
*906 FILLER_0_20_85
*907 FILLER_0_20_97
*908 FILLER_0_21_105
*909 FILLER_0_21_111
*910 FILLER_0_21_113
*911 FILLER_0_21_137
*912 FILLER_0_21_145
*913 FILLER_0_21_15
*914 FILLER_0_21_164
*915 FILLER_0_21_169
*916 FILLER_0_21_181
*917 FILLER_0_21_193
*918 FILLER_0_21_205
*919 FILLER_0_21_213
*920 FILLER_0_21_221
*921 FILLER_0_21_225
*922 FILLER_0_21_237
*923 FILLER_0_21_249
*924 FILLER_0_21_261
*925 FILLER_0_21_27
*926 FILLER_0_21_273
*927 FILLER_0_21_279
*928 FILLER_0_21_281
*929 FILLER_0_21_293
*930 FILLER_0_21_3
*931 FILLER_0_21_305
*932 FILLER_0_21_317
*933 FILLER_0_21_329
*934 FILLER_0_21_39
*935 FILLER_0_21_51
*936 FILLER_0_21_55
*937 FILLER_0_21_57
*938 FILLER_0_21_69
*939 FILLER_0_21_81
*940 FILLER_0_21_93
*941 FILLER_0_22_109
*942 FILLER_0_22_117
*943 FILLER_0_22_130
*944 FILLER_0_22_15
*945 FILLER_0_22_155
*946 FILLER_0_22_165
*947 FILLER_0_22_188
*948 FILLER_0_22_192
*949 FILLER_0_22_233
*950 FILLER_0_22_243
*951 FILLER_0_22_247
*952 FILLER_0_22_251
*953 FILLER_0_22_253
*954 FILLER_0_22_265
*955 FILLER_0_22_27
*956 FILLER_0_22_277
*957 FILLER_0_22_289
*958 FILLER_0_22_29
*959 FILLER_0_22_3
*960 FILLER_0_22_301
*961 FILLER_0_22_307
*962 FILLER_0_22_309
*963 FILLER_0_22_321
*964 FILLER_0_22_333
*965 FILLER_0_22_41
*966 FILLER_0_22_53
*967 FILLER_0_22_59
*968 FILLER_0_22_63
*969 FILLER_0_22_75
*970 FILLER_0_22_83
*971 FILLER_0_22_85
*972 FILLER_0_22_97
*973 FILLER_0_23_110
*974 FILLER_0_23_113
*975 FILLER_0_23_122
*976 FILLER_0_23_128
*977 FILLER_0_23_138
*978 FILLER_0_23_15
*979 FILLER_0_23_150
*980 FILLER_0_23_154
*981 FILLER_0_23_164
*982 FILLER_0_23_169
*983 FILLER_0_23_191
*984 FILLER_0_23_203
*985 FILLER_0_23_215
*986 FILLER_0_23_222
*987 FILLER_0_23_225
*988 FILLER_0_23_237
*989 FILLER_0_23_264
*990 FILLER_0_23_27
*991 FILLER_0_23_279
*992 FILLER_0_23_281
*993 FILLER_0_23_293
*994 FILLER_0_23_3
*995 FILLER_0_23_305
*996 FILLER_0_23_317
*997 FILLER_0_23_329
*998 FILLER_0_23_47
*999 FILLER_0_23_55
*1000 FILLER_0_23_57
*1001 FILLER_0_23_75
*1002 FILLER_0_23_87
*1003 FILLER_0_24_109
*1004 FILLER_0_24_133
*1005 FILLER_0_24_139
*1006 FILLER_0_24_141
*1007 FILLER_0_24_15
*1008 FILLER_0_24_152
*1009 FILLER_0_24_174
*1010 FILLER_0_24_186
*1011 FILLER_0_24_194
*1012 FILLER_0_24_197
*1013 FILLER_0_24_212
*1014 FILLER_0_24_227
*1015 FILLER_0_24_231
*1016 FILLER_0_24_247
*1017 FILLER_0_24_251
*1018 FILLER_0_24_253
*1019 FILLER_0_24_27
*1020 FILLER_0_24_273
*1021 FILLER_0_24_285
*1022 FILLER_0_24_29
*1023 FILLER_0_24_297
*1024 FILLER_0_24_3
*1025 FILLER_0_24_305
*1026 FILLER_0_24_309
*1027 FILLER_0_24_321
*1028 FILLER_0_24_333
*1029 FILLER_0_24_37
*1030 FILLER_0_24_50
*1031 FILLER_0_24_54
*1032 FILLER_0_24_73
*1033 FILLER_0_24_77
*1034 FILLER_0_24_83
*1035 FILLER_0_24_97
*1036 FILLER_0_25_11
*1037 FILLER_0_25_111
*1038 FILLER_0_25_113
*1039 FILLER_0_25_120
*1040 FILLER_0_25_132
*1041 FILLER_0_25_147
*1042 FILLER_0_25_155
*1043 FILLER_0_25_165
*1044 FILLER_0_25_169
*1045 FILLER_0_25_181
*1046 FILLER_0_25_187
*1047 FILLER_0_25_198
*1048 FILLER_0_25_210
*1049 FILLER_0_25_222
*1050 FILLER_0_25_228
*1051 FILLER_0_25_240
*1052 FILLER_0_25_248
*1053 FILLER_0_25_260
*1054 FILLER_0_25_264
*1055 FILLER_0_25_271
*1056 FILLER_0_25_295
*1057 FILLER_0_25_3
*1058 FILLER_0_25_303
*1059 FILLER_0_25_316
*1060 FILLER_0_25_320
*1061 FILLER_0_25_33
*1062 FILLER_0_25_332
*1063 FILLER_0_25_45
*1064 FILLER_0_25_52
*1065 FILLER_0_25_57
*1066 FILLER_0_25_77
*1067 FILLER_0_25_91
*1068 FILLER_0_26_101
*1069 FILLER_0_26_109
*1070 FILLER_0_26_139
*1071 FILLER_0_26_141
*1072 FILLER_0_26_15
*1073 FILLER_0_26_161
*1074 FILLER_0_26_187
*1075 FILLER_0_26_195
*1076 FILLER_0_26_197
*1077 FILLER_0_26_203
*1078 FILLER_0_26_209
*1079 FILLER_0_26_219
*1080 FILLER_0_26_235
*1081 FILLER_0_26_241
*1082 FILLER_0_26_245
*1083 FILLER_0_26_251
*1084 FILLER_0_26_253
*1085 FILLER_0_26_265
*1086 FILLER_0_26_27
*1087 FILLER_0_26_276
*1088 FILLER_0_26_282
*1089 FILLER_0_26_286
*1090 FILLER_0_26_294
*1091 FILLER_0_26_3
*1092 FILLER_0_26_307
*1093 FILLER_0_26_309
*1094 FILLER_0_26_317
*1095 FILLER_0_26_324
*1096 FILLER_0_26_33
*1097 FILLER_0_26_332
*1098 FILLER_0_26_48
*1099 FILLER_0_26_70
*1100 FILLER_0_26_76
*1101 FILLER_0_26_82
*1102 FILLER_0_26_89
*1103 FILLER_0_27_105
*1104 FILLER_0_27_111
*1105 FILLER_0_27_113
*1106 FILLER_0_27_125
*1107 FILLER_0_27_137
*1108 FILLER_0_27_143
*1109 FILLER_0_27_15
*1110 FILLER_0_27_155
*1111 FILLER_0_27_167
*1112 FILLER_0_27_173
*1113 FILLER_0_27_177
*1114 FILLER_0_27_195
*1115 FILLER_0_27_209
*1116 FILLER_0_27_221
*1117 FILLER_0_27_225
*1118 FILLER_0_27_23
*1119 FILLER_0_27_237
*1120 FILLER_0_27_249
*1121 FILLER_0_27_258
*1122 FILLER_0_27_270
*1123 FILLER_0_27_278
*1124 FILLER_0_27_284
*1125 FILLER_0_27_29
*1126 FILLER_0_27_292
*1127 FILLER_0_27_3
*1128 FILLER_0_27_305
*1129 FILLER_0_27_317
*1130 FILLER_0_27_330
*1131 FILLER_0_27_334
*1132 FILLER_0_27_37
*1133 FILLER_0_27_47
*1134 FILLER_0_27_55
*1135 FILLER_0_27_57
*1136 FILLER_0_27_65
*1137 FILLER_0_27_78
*1138 FILLER_0_27_87
*1139 FILLER_0_28_102
*1140 FILLER_0_28_11
*1141 FILLER_0_28_110
*1142 FILLER_0_28_121
*1143 FILLER_0_28_129
*1144 FILLER_0_28_150
*1145 FILLER_0_28_171
*1146 FILLER_0_28_179
*1147 FILLER_0_28_184
*1148 FILLER_0_28_197
*1149 FILLER_0_28_209
*1150 FILLER_0_28_220
*1151 FILLER_0_28_224
*1152 FILLER_0_28_242
*1153 FILLER_0_28_250
*1154 FILLER_0_28_29
*1155 FILLER_0_28_290
*1156 FILLER_0_28_3
*1157 FILLER_0_28_304
*1158 FILLER_0_28_331
*1159 FILLER_0_28_49
*1160 FILLER_0_28_53
*1161 FILLER_0_28_76
*1162 FILLER_0_28_81
*1163 FILLER_0_28_85
*1164 FILLER_0_29_108
*1165 FILLER_0_29_113
*1166 FILLER_0_29_130
*1167 FILLER_0_29_15
*1168 FILLER_0_29_151
*1169 FILLER_0_29_163
*1170 FILLER_0_29_167
*1171 FILLER_0_29_187
*1172 FILLER_0_29_193
*1173 FILLER_0_29_201
*1174 FILLER_0_29_222
*1175 FILLER_0_29_225
*1176 FILLER_0_29_237
*1177 FILLER_0_29_249
*1178 FILLER_0_29_253
*1179 FILLER_0_29_257
*1180 FILLER_0_29_262
*1181 FILLER_0_29_27
*1182 FILLER_0_29_274
*1183 FILLER_0_29_281
*1184 FILLER_0_29_291
*1185 FILLER_0_29_3
*1186 FILLER_0_29_306
*1187 FILLER_0_29_31
*1188 FILLER_0_29_318
*1189 FILLER_0_29_328
*1190 FILLER_0_29_334
*1191 FILLER_0_29_43
*1192 FILLER_0_29_48
*1193 FILLER_0_29_57
*1194 FILLER_0_29_69
*1195 FILLER_0_29_81
*1196 FILLER_0_29_89
*1197 FILLER_0_2_109
*1198 FILLER_0_2_121
*1199 FILLER_0_2_133
*1200 FILLER_0_2_139
*1201 FILLER_0_2_141
*1202 FILLER_0_2_15
*1203 FILLER_0_2_153
*1204 FILLER_0_2_165
*1205 FILLER_0_2_177
*1206 FILLER_0_2_189
*1207 FILLER_0_2_195
*1208 FILLER_0_2_197
*1209 FILLER_0_2_209
*1210 FILLER_0_2_221
*1211 FILLER_0_2_233
*1212 FILLER_0_2_245
*1213 FILLER_0_2_251
*1214 FILLER_0_2_253
*1215 FILLER_0_2_265
*1216 FILLER_0_2_27
*1217 FILLER_0_2_277
*1218 FILLER_0_2_289
*1219 FILLER_0_2_29
*1220 FILLER_0_2_3
*1221 FILLER_0_2_301
*1222 FILLER_0_2_307
*1223 FILLER_0_2_309
*1224 FILLER_0_2_321
*1225 FILLER_0_2_333
*1226 FILLER_0_2_41
*1227 FILLER_0_2_53
*1228 FILLER_0_2_65
*1229 FILLER_0_2_77
*1230 FILLER_0_2_83
*1231 FILLER_0_2_85
*1232 FILLER_0_2_97
*1233 FILLER_0_30_101
*1234 FILLER_0_30_11
*1235 FILLER_0_30_113
*1236 FILLER_0_30_119
*1237 FILLER_0_30_125
*1238 FILLER_0_30_134
*1239 FILLER_0_30_170
*1240 FILLER_0_30_184
*1241 FILLER_0_30_192
*1242 FILLER_0_30_197
*1243 FILLER_0_30_205
*1244 FILLER_0_30_217
*1245 FILLER_0_30_224
*1246 FILLER_0_30_230
*1247 FILLER_0_30_247
*1248 FILLER_0_30_265
*1249 FILLER_0_30_269
*1250 FILLER_0_30_280
*1251 FILLER_0_30_288
*1252 FILLER_0_30_29
*1253 FILLER_0_30_296
*1254 FILLER_0_30_3
*1255 FILLER_0_30_305
*1256 FILLER_0_30_309
*1257 FILLER_0_30_35
*1258 FILLER_0_30_65
*1259 FILLER_0_30_85
*1260 FILLER_0_31_101
*1261 FILLER_0_31_107
*1262 FILLER_0_31_111
*1263 FILLER_0_31_121
*1264 FILLER_0_31_141
*1265 FILLER_0_31_149
*1266 FILLER_0_31_15
*1267 FILLER_0_31_169
*1268 FILLER_0_31_175
*1269 FILLER_0_31_182
*1270 FILLER_0_31_208
*1271 FILLER_0_31_225
*1272 FILLER_0_31_245
*1273 FILLER_0_31_257
*1274 FILLER_0_31_265
*1275 FILLER_0_31_27
*1276 FILLER_0_31_277
*1277 FILLER_0_31_281
*1278 FILLER_0_31_293
*1279 FILLER_0_31_3
*1280 FILLER_0_31_304
*1281 FILLER_0_31_310
*1282 FILLER_0_31_321
*1283 FILLER_0_31_327
*1284 FILLER_0_31_39
*1285 FILLER_0_31_51
*1286 FILLER_0_31_55
*1287 FILLER_0_31_57
*1288 FILLER_0_31_69
*1289 FILLER_0_31_76
*1290 FILLER_0_31_80
*1291 FILLER_0_31_89
*1292 FILLER_0_32_100
*1293 FILLER_0_32_108
*1294 FILLER_0_32_11
*1295 FILLER_0_32_124
*1296 FILLER_0_32_136
*1297 FILLER_0_32_150
*1298 FILLER_0_32_159
*1299 FILLER_0_32_171
*1300 FILLER_0_32_188
*1301 FILLER_0_32_197
*1302 FILLER_0_32_203
*1303 FILLER_0_32_211
*1304 FILLER_0_32_226
*1305 FILLER_0_32_230
*1306 FILLER_0_32_249
*1307 FILLER_0_32_253
*1308 FILLER_0_32_258
*1309 FILLER_0_32_269
*1310 FILLER_0_32_287
*1311 FILLER_0_32_29
*1312 FILLER_0_32_3
*1313 FILLER_0_32_305
*1314 FILLER_0_32_309
*1315 FILLER_0_32_317
*1316 FILLER_0_32_333
*1317 FILLER_0_32_49
*1318 FILLER_0_32_58
*1319 FILLER_0_32_66
*1320 FILLER_0_32_83
*1321 FILLER_0_32_85
*1322 FILLER_0_33_103
*1323 FILLER_0_33_111
*1324 FILLER_0_33_120
*1325 FILLER_0_33_146
*1326 FILLER_0_33_15
*1327 FILLER_0_33_169
*1328 FILLER_0_33_173
*1329 FILLER_0_33_177
*1330 FILLER_0_33_189
*1331 FILLER_0_33_201
*1332 FILLER_0_33_208
*1333 FILLER_0_33_220
*1334 FILLER_0_33_225
*1335 FILLER_0_33_244
*1336 FILLER_0_33_256
*1337 FILLER_0_33_274
*1338 FILLER_0_33_287
*1339 FILLER_0_33_295
*1340 FILLER_0_33_3
*1341 FILLER_0_33_303
*1342 FILLER_0_33_323
*1343 FILLER_0_33_329
*1344 FILLER_0_33_34
*1345 FILLER_0_33_47
*1346 FILLER_0_33_55
*1347 FILLER_0_33_63
*1348 FILLER_0_33_71
*1349 FILLER_0_33_81
*1350 FILLER_0_33_93
*1351 FILLER_0_34_105
*1352 FILLER_0_34_113
*1353 FILLER_0_34_123
*1354 FILLER_0_34_131
*1355 FILLER_0_34_137
*1356 FILLER_0_34_141
*1357 FILLER_0_34_15
*1358 FILLER_0_34_153
*1359 FILLER_0_34_163
*1360 FILLER_0_34_191
*1361 FILLER_0_34_195
*1362 FILLER_0_34_203
*1363 FILLER_0_34_223
*1364 FILLER_0_34_231
*1365 FILLER_0_34_237
*1366 FILLER_0_34_245
*1367 FILLER_0_34_249
*1368 FILLER_0_34_253
*1369 FILLER_0_34_265
*1370 FILLER_0_34_27
*1371 FILLER_0_34_277
*1372 FILLER_0_34_29
*1373 FILLER_0_34_292
*1374 FILLER_0_34_3
*1375 FILLER_0_34_300
*1376 FILLER_0_34_304
*1377 FILLER_0_34_323
*1378 FILLER_0_34_332
*1379 FILLER_0_34_41
*1380 FILLER_0_34_53
*1381 FILLER_0_34_57
*1382 FILLER_0_34_62
*1383 FILLER_0_34_85
*1384 FILLER_0_35_113
*1385 FILLER_0_35_149
*1386 FILLER_0_35_15
*1387 FILLER_0_35_157
*1388 FILLER_0_35_165
*1389 FILLER_0_35_169
*1390 FILLER_0_35_184
*1391 FILLER_0_35_195
*1392 FILLER_0_35_205
*1393 FILLER_0_35_220
*1394 FILLER_0_35_225
*1395 FILLER_0_35_236
*1396 FILLER_0_35_254
*1397 FILLER_0_35_265
*1398 FILLER_0_35_27
*1399 FILLER_0_35_276
*1400 FILLER_0_35_288
*1401 FILLER_0_35_296
*1402 FILLER_0_35_3
*1403 FILLER_0_35_306
*1404 FILLER_0_35_314
*1405 FILLER_0_35_321
*1406 FILLER_0_35_333
*1407 FILLER_0_35_39
*1408 FILLER_0_35_60
*1409 FILLER_0_35_64
*1410 FILLER_0_35_68
*1411 FILLER_0_35_95
*1412 FILLER_0_36_105
*1413 FILLER_0_36_118
*1414 FILLER_0_36_130
*1415 FILLER_0_36_137
*1416 FILLER_0_36_141
*1417 FILLER_0_36_15
*1418 FILLER_0_36_153
*1419 FILLER_0_36_170
*1420 FILLER_0_36_177
*1421 FILLER_0_36_189
*1422 FILLER_0_36_195
*1423 FILLER_0_36_206
*1424 FILLER_0_36_210
*1425 FILLER_0_36_214
*1426 FILLER_0_36_243
*1427 FILLER_0_36_251
*1428 FILLER_0_36_253
*1429 FILLER_0_36_27
*1430 FILLER_0_36_283
*1431 FILLER_0_36_29
*1432 FILLER_0_36_292
*1433 FILLER_0_36_3
*1434 FILLER_0_36_302
*1435 FILLER_0_36_309
*1436 FILLER_0_36_319
*1437 FILLER_0_36_328
*1438 FILLER_0_36_334
*1439 FILLER_0_36_41
*1440 FILLER_0_36_53
*1441 FILLER_0_36_65
*1442 FILLER_0_36_77
*1443 FILLER_0_36_83
*1444 FILLER_0_36_88
*1445 FILLER_0_36_96
*1446 FILLER_0_37_109
*1447 FILLER_0_37_113
*1448 FILLER_0_37_126
*1449 FILLER_0_37_133
*1450 FILLER_0_37_15
*1451 FILLER_0_37_151
*1452 FILLER_0_37_155
*1453 FILLER_0_37_164
*1454 FILLER_0_37_189
*1455 FILLER_0_37_206
*1456 FILLER_0_37_214
*1457 FILLER_0_37_222
*1458 FILLER_0_37_225
*1459 FILLER_0_37_237
*1460 FILLER_0_37_258
*1461 FILLER_0_37_262
*1462 FILLER_0_37_27
*1463 FILLER_0_37_276
*1464 FILLER_0_37_281
*1465 FILLER_0_37_287
*1466 FILLER_0_37_299
*1467 FILLER_0_37_3
*1468 FILLER_0_37_307
*1469 FILLER_0_37_318
*1470 FILLER_0_37_331
*1471 FILLER_0_37_39
*1472 FILLER_0_37_51
*1473 FILLER_0_37_55
*1474 FILLER_0_37_57
*1475 FILLER_0_37_80
*1476 FILLER_0_38_10
*1477 FILLER_0_38_102
*1478 FILLER_0_38_110
*1479 FILLER_0_38_113
*1480 FILLER_0_38_118
*1481 FILLER_0_38_122
*1482 FILLER_0_38_126
*1483 FILLER_0_38_130
*1484 FILLER_0_38_134
*1485 FILLER_0_38_14
*1486 FILLER_0_38_144
*1487 FILLER_0_38_150
*1488 FILLER_0_38_154
*1489 FILLER_0_38_158
*1490 FILLER_0_38_162
*1491 FILLER_0_38_166
*1492 FILLER_0_38_169
*1493 FILLER_0_38_177
*1494 FILLER_0_38_18
*1495 FILLER_0_38_182
*1496 FILLER_0_38_186
*1497 FILLER_0_38_190
*1498 FILLER_0_38_206
*1499 FILLER_0_38_210
*1500 FILLER_0_38_215
*1501 FILLER_0_38_22
*1502 FILLER_0_38_222
*1503 FILLER_0_38_225
*1504 FILLER_0_38_231
*1505 FILLER_0_38_248
*1506 FILLER_0_38_253
*1507 FILLER_0_38_269
*1508 FILLER_0_38_298
*1509 FILLER_0_38_307
*1510 FILLER_0_38_315
*1511 FILLER_0_38_32
*1512 FILLER_0_38_328
*1513 FILLER_0_38_334
*1514 FILLER_0_38_38
*1515 FILLER_0_38_42
*1516 FILLER_0_38_46
*1517 FILLER_0_38_50
*1518 FILLER_0_38_54
*1519 FILLER_0_38_57
*1520 FILLER_0_38_6
*1521 FILLER_0_38_62
*1522 FILLER_0_38_68
*1523 FILLER_0_38_76
*1524 FILLER_0_38_82
*1525 FILLER_0_38_89
*1526 FILLER_0_38_94
*1527 FILLER_0_38_98
*1528 FILLER_0_3_105
*1529 FILLER_0_3_111
*1530 FILLER_0_3_113
*1531 FILLER_0_3_125
*1532 FILLER_0_3_137
*1533 FILLER_0_3_149
*1534 FILLER_0_3_15
*1535 FILLER_0_3_161
*1536 FILLER_0_3_167
*1537 FILLER_0_3_169
*1538 FILLER_0_3_181
*1539 FILLER_0_3_193
*1540 FILLER_0_3_205
*1541 FILLER_0_3_217
*1542 FILLER_0_3_223
*1543 FILLER_0_3_225
*1544 FILLER_0_3_237
*1545 FILLER_0_3_249
*1546 FILLER_0_3_261
*1547 FILLER_0_3_27
*1548 FILLER_0_3_273
*1549 FILLER_0_3_279