*SPEF "ieee 1481-1999"
*DESIGN "tt_um_PWM_Controller"
*DATE "13:57:39 Friday April 19, 2024"
*VENDOR "The OpenROAD Project"
*PROGRAM "OpenROAD"
*VERSION "0889970d1790a2617e69f253221b8bd7626e51dc"
*DESIGN_FLOW "NAME_SCOPE LOCAL" "PIN_CAP NONE"
*DIVIDER /
*DELIMITER :
*BUS_DELIMITER []
*T_UNIT 1 NS
*C_UNIT 1 PF
*R_UNIT 1 OHM
*L_UNIT 1 HENRY

*NAME_MAP
*3 clk
*4 ena
*5 rst_n
*6 ui_in[0]
*7 ui_in[1]
*8 ui_in[2]
*9 ui_in[3]
*10 ui_in[4]
*11 ui_in[5]
*12 ui_in[6]
*13 ui_in[7]
*14 uio_in[0]
*15 uio_in[1]
*16 uio_in[2]
*17 uio_in[3]
*18 uio_in[4]
*19 uio_in[5]
*20 uio_in[6]
*21 uio_in[7]
*22 net4
*23 net5
*24 net6
*25 net7
*26 net8
*27 net9
*28 net10
*29 net11
*30 net12
*31 net13
*32 net14
*33 net15
*34 net16
*35 net17
*36 net18
*37 net19
*38 uo_out[0]
*39 net20
*40 net21
*41 net22
*42 net23
*43 net24
*44 net25
*45 net26
*46 DUTY_CYCLE\[0\]
*47 DUTY_CYCLE\[1\]
*48 DUTY_CYCLE\[2\]
*49 DUTY_CYCLE\[3\]
*50 PWM_OUT
*51 _000_
*52 _001_
*53 _002_
*54 _003_
*55 _004_
*56 _005_
*57 _006_
*58 _007_
*59 _008_
*60 _009_
*61 _010_
*62 _011_
*63 _012_
*64 _013_
*65 _014_
*66 _015_
*67 _016_
*68 _017_
*69 _018_
*70 _019_
*71 _020_
*72 _021_
*73 _022_
*74 _023_
*75 _024_
*76 _025_
*77 _026_
*78 _027_
*79 _028_
*80 _029_
*81 _030_
*82 _031_
*83 _032_
*84 _033_
*85 _034_
*86 _035_
*87 _036_
*88 _037_
*89 _038_
*90 _039_
*91 _040_
*92 _041_
*93 _042_
*94 _043_
*95 _044_
*96 clknet_0_clk
*97 clknet_1_0__leaf_clk
*98 clknet_1_1__leaf_clk
*99 counter_PWM\[0\]
*100 counter_PWM\[1\]
*101 counter_PWM\[2\]
*102 counter_PWM\[3\]
*103 net1
*104 net2
*105 net27
*106 net28
*107 net29
*108 net3
*109 net30
*110 net31
*111 net32
*112 net33
*113 FILLER_0_0_109
*114 FILLER_0_0_113
*115 FILLER_0_0_125
*116 FILLER_0_0_137
*117 FILLER_0_0_141
*118 FILLER_0_0_15
*119 FILLER_0_0_153
*120 FILLER_0_0_165
*121 FILLER_0_0_169
*122 FILLER_0_0_181
*123 FILLER_0_0_193
*124 FILLER_0_0_197
*125 FILLER_0_0_209
*126 FILLER_0_0_221
*127 FILLER_0_0_225
*128 FILLER_0_0_237
*129 FILLER_0_0_249
*130 FILLER_0_0_253
*131 FILLER_0_0_265
*132 FILLER_0_0_27
*133 FILLER_0_0_277
*134 FILLER_0_0_281
*135 FILLER_0_0_29
*136 FILLER_0_0_293
*137 FILLER_0_0_3
*138 FILLER_0_0_305
*139 FILLER_0_0_309
*140 FILLER_0_0_321
*141 FILLER_0_0_333
*142 FILLER_0_0_41
*143 FILLER_0_0_53
*144 FILLER_0_0_57
*145 FILLER_0_0_69
*146 FILLER_0_0_81
*147 FILLER_0_0_85
*148 FILLER_0_0_97
*149 FILLER_0_10_109
*150 FILLER_0_10_121
*151 FILLER_0_10_133
*152 FILLER_0_10_139
*153 FILLER_0_10_141
*154 FILLER_0_10_15
*155 FILLER_0_10_153
*156 FILLER_0_10_165
*157 FILLER_0_10_177
*158 FILLER_0_10_189
*159 FILLER_0_10_195
*160 FILLER_0_10_197
*161 FILLER_0_10_209
*162 FILLER_0_10_221
*163 FILLER_0_10_233
*164 FILLER_0_10_245
*165 FILLER_0_10_251
*166 FILLER_0_10_253
*167 FILLER_0_10_265
*168 FILLER_0_10_27
*169 FILLER_0_10_277
*170 FILLER_0_10_289
*171 FILLER_0_10_29
*172 FILLER_0_10_3
*173 FILLER_0_10_301
*174 FILLER_0_10_307
*175 FILLER_0_10_309
*176 FILLER_0_10_321
*177 FILLER_0_10_333
*178 FILLER_0_10_41
*179 FILLER_0_10_53
*180 FILLER_0_10_65
*181 FILLER_0_10_77
*182 FILLER_0_10_83
*183 FILLER_0_10_85
*184 FILLER_0_10_97
*185 FILLER_0_11_105
*186 FILLER_0_11_111
*187 FILLER_0_11_113
*188 FILLER_0_11_125
*189 FILLER_0_11_137
*190 FILLER_0_11_149
*191 FILLER_0_11_15
*192 FILLER_0_11_161
*193 FILLER_0_11_167
*194 FILLER_0_11_169
*195 FILLER_0_11_181
*196 FILLER_0_11_193
*197 FILLER_0_11_205
*198 FILLER_0_11_217
*199 FILLER_0_11_223
*200 FILLER_0_11_225
*201 FILLER_0_11_237
*202 FILLER_0_11_249
*203 FILLER_0_11_261
*204 FILLER_0_11_27
*205 FILLER_0_11_273
*206 FILLER_0_11_279
*207 FILLER_0_11_281
*208 FILLER_0_11_293
*209 FILLER_0_11_3
*210 FILLER_0_11_305
*211 FILLER_0_11_317
*212 FILLER_0_11_329
*213 FILLER_0_11_39
*214 FILLER_0_11_51
*215 FILLER_0_11_55
*216 FILLER_0_11_57
*217 FILLER_0_11_69
*218 FILLER_0_11_81
*219 FILLER_0_11_93
*220 FILLER_0_12_109
*221 FILLER_0_12_121
*222 FILLER_0_12_133
*223 FILLER_0_12_139
*224 FILLER_0_12_141
*225 FILLER_0_12_15
*226 FILLER_0_12_153
*227 FILLER_0_12_165
*228 FILLER_0_12_177
*229 FILLER_0_12_189
*230 FILLER_0_12_195
*231 FILLER_0_12_197
*232 FILLER_0_12_209
*233 FILLER_0_12_221
*234 FILLER_0_12_233
*235 FILLER_0_12_245
*236 FILLER_0_12_251
*237 FILLER_0_12_253
*238 FILLER_0_12_265
*239 FILLER_0_12_27
*240 FILLER_0_12_277
*241 FILLER_0_12_289
*242 FILLER_0_12_29
*243 FILLER_0_12_3
*244 FILLER_0_12_301
*245 FILLER_0_12_307
*246 FILLER_0_12_309
*247 FILLER_0_12_321
*248 FILLER_0_12_333
*249 FILLER_0_12_41
*250 FILLER_0_12_53
*251 FILLER_0_12_65
*252 FILLER_0_12_77
*253 FILLER_0_12_83
*254 FILLER_0_12_85
*255 FILLER_0_12_97
*256 FILLER_0_13_105
*257 FILLER_0_13_111
*258 FILLER_0_13_113
*259 FILLER_0_13_125
*260 FILLER_0_13_137
*261 FILLER_0_13_149
*262 FILLER_0_13_15
*263 FILLER_0_13_161
*264 FILLER_0_13_167
*265 FILLER_0_13_169
*266 FILLER_0_13_181
*267 FILLER_0_13_193
*268 FILLER_0_13_205
*269 FILLER_0_13_217
*270 FILLER_0_13_223
*271 FILLER_0_13_225
*272 FILLER_0_13_237
*273 FILLER_0_13_249
*274 FILLER_0_13_261
*275 FILLER_0_13_27
*276 FILLER_0_13_273
*277 FILLER_0_13_279
*278 FILLER_0_13_281
*279 FILLER_0_13_293
*280 FILLER_0_13_3
*281 FILLER_0_13_305
*282 FILLER_0_13_317
*283 FILLER_0_13_329
*284 FILLER_0_13_39
*285 FILLER_0_13_51
*286 FILLER_0_13_55
*287 FILLER_0_13_57
*288 FILLER_0_13_69
*289 FILLER_0_13_81
*290 FILLER_0_13_93
*291 FILLER_0_14_109
*292 FILLER_0_14_121
*293 FILLER_0_14_133
*294 FILLER_0_14_139
*295 FILLER_0_14_141
*296 FILLER_0_14_15
*297 FILLER_0_14_153
*298 FILLER_0_14_165
*299 FILLER_0_14_177
*300 FILLER_0_14_189
*301 FILLER_0_14_195
*302 FILLER_0_14_197
*303 FILLER_0_14_209
*304 FILLER_0_14_221
*305 FILLER_0_14_233
*306 FILLER_0_14_245
*307 FILLER_0_14_251
*308 FILLER_0_14_253
*309 FILLER_0_14_265
*310 FILLER_0_14_27
*311 FILLER_0_14_277
*312 FILLER_0_14_289
*313 FILLER_0_14_29
*314 FILLER_0_14_3
*315 FILLER_0_14_301
*316 FILLER_0_14_307
*317 FILLER_0_14_309
*318 FILLER_0_14_321
*319 FILLER_0_14_333
*320 FILLER_0_14_41
*321 FILLER_0_14_53
*322 FILLER_0_14_65
*323 FILLER_0_14_77
*324 FILLER_0_14_83
*325 FILLER_0_14_85
*326 FILLER_0_14_97
*327 FILLER_0_15_105
*328 FILLER_0_15_111
*329 FILLER_0_15_113
*330 FILLER_0_15_125
*331 FILLER_0_15_137
*332 FILLER_0_15_149
*333 FILLER_0_15_15
*334 FILLER_0_15_161
*335 FILLER_0_15_167
*336 FILLER_0_15_169
*337 FILLER_0_15_181
*338 FILLER_0_15_193
*339 FILLER_0_15_205
*340 FILLER_0_15_217
*341 FILLER_0_15_223
*342 FILLER_0_15_225
*343 FILLER_0_15_237
*344 FILLER_0_15_249
*345 FILLER_0_15_261
*346 FILLER_0_15_27
*347 FILLER_0_15_273
*348 FILLER_0_15_279
*349 FILLER_0_15_281
*350 FILLER_0_15_293
*351 FILLER_0_15_3
*352 FILLER_0_15_305
*353 FILLER_0_15_317
*354 FILLER_0_15_329
*355 FILLER_0_15_39
*356 FILLER_0_15_51
*357 FILLER_0_15_55
*358 FILLER_0_15_57
*359 FILLER_0_15_69
*360 FILLER_0_15_81
*361 FILLER_0_15_93
*362 FILLER_0_16_109
*363 FILLER_0_16_121
*364 FILLER_0_16_133
*365 FILLER_0_16_139
*366 FILLER_0_16_141
*367 FILLER_0_16_15
*368 FILLER_0_16_153
*369 FILLER_0_16_165
*370 FILLER_0_16_177
*371 FILLER_0_16_189
*372 FILLER_0_16_195
*373 FILLER_0_16_197
*374 FILLER_0_16_209
*375 FILLER_0_16_221
*376 FILLER_0_16_233
*377 FILLER_0_16_245
*378 FILLER_0_16_251
*379 FILLER_0_16_253
*380 FILLER_0_16_265
*381 FILLER_0_16_27
*382 FILLER_0_16_277
*383 FILLER_0_16_289
*384 FILLER_0_16_29
*385 FILLER_0_16_3
*386 FILLER_0_16_301
*387 FILLER_0_16_307
*388 FILLER_0_16_309
*389 FILLER_0_16_321
*390 FILLER_0_16_333
*391 FILLER_0_16_41
*392 FILLER_0_16_53
*393 FILLER_0_16_65
*394 FILLER_0_16_77
*395 FILLER_0_16_83
*396 FILLER_0_16_85
*397 FILLER_0_16_97
*398 FILLER_0_17_105
*399 FILLER_0_17_111
*400 FILLER_0_17_113
*401 FILLER_0_17_125
*402 FILLER_0_17_137
*403 FILLER_0_17_149
*404 FILLER_0_17_15
*405 FILLER_0_17_161
*406 FILLER_0_17_167
*407 FILLER_0_17_169
*408 FILLER_0_17_181
*409 FILLER_0_17_193
*410 FILLER_0_17_205
*411 FILLER_0_17_217
*412 FILLER_0_17_223
*413 FILLER_0_17_225
*414 FILLER_0_17_237
*415 FILLER_0_17_249
*416 FILLER_0_17_261
*417 FILLER_0_17_27
*418 FILLER_0_17_273
*419 FILLER_0_17_279
*420 FILLER_0_17_281
*421 FILLER_0_17_293
*422 FILLER_0_17_3
*423 FILLER_0_17_305
*424 FILLER_0_17_317
*425 FILLER_0_17_329
*426 FILLER_0_17_39
*427 FILLER_0_17_51
*428 FILLER_0_17_55
*429 FILLER_0_17_57
*430 FILLER_0_17_69
*431 FILLER_0_17_81
*432 FILLER_0_17_93
*433 FILLER_0_18_109
*434 FILLER_0_18_121
*435 FILLER_0_18_133
*436 FILLER_0_18_139
*437 FILLER_0_18_141
*438 FILLER_0_18_15
*439 FILLER_0_18_153
*440 FILLER_0_18_165
*441 FILLER_0_18_177
*442 FILLER_0_18_189
*443 FILLER_0_18_195
*444 FILLER_0_18_197
*445 FILLER_0_18_209
*446 FILLER_0_18_221
*447 FILLER_0_18_233
*448 FILLER_0_18_245
*449 FILLER_0_18_251
*450 FILLER_0_18_253
*451 FILLER_0_18_265
*452 FILLER_0_18_27
*453 FILLER_0_18_277
*454 FILLER_0_18_289
*455 FILLER_0_18_29
*456 FILLER_0_18_3
*457 FILLER_0_18_301
*458 FILLER_0_18_307
*459 FILLER_0_18_309
*460 FILLER_0_18_321
*461 FILLER_0_18_333
*462 FILLER_0_18_41
*463 FILLER_0_18_53
*464 FILLER_0_18_65
*465 FILLER_0_18_77
*466 FILLER_0_18_83
*467 FILLER_0_18_85
*468 FILLER_0_18_97
*469 FILLER_0_19_105
*470 FILLER_0_19_111
*471 FILLER_0_19_113
*472 FILLER_0_19_125
*473 FILLER_0_19_137
*474 FILLER_0_19_149
*475 FILLER_0_19_15
*476 FILLER_0_19_161
*477 FILLER_0_19_167
*478 FILLER_0_19_169
*479 FILLER_0_19_181
*480 FILLER_0_19_193
*481 FILLER_0_19_205
*482 FILLER_0_19_217
*483 FILLER_0_19_223
*484 FILLER_0_19_225
*485 FILLER_0_19_237
*486 FILLER_0_19_249
*487 FILLER_0_19_261
*488 FILLER_0_19_27
*489 FILLER_0_19_273
*490 FILLER_0_19_279
*491 FILLER_0_19_281
*492 FILLER_0_19_293
*493 FILLER_0_19_3
*494 FILLER_0_19_305
*495 FILLER_0_19_317
*496 FILLER_0_19_329
*497 FILLER_0_19_39
*498 FILLER_0_19_51
*499 FILLER_0_19_55
*500 FILLER_0_19_57
*501 FILLER_0_19_69
*502 FILLER_0_19_81
*503 FILLER_0_19_93
*504 FILLER_0_1_105
*505 FILLER_0_1_111
*506 FILLER_0_1_113
*507 FILLER_0_1_125
*508 FILLER_0_1_137
*509 FILLER_0_1_149
*510 FILLER_0_1_15
*511 FILLER_0_1_161
*512 FILLER_0_1_167
*513 FILLER_0_1_169
*514 FILLER_0_1_181
*515 FILLER_0_1_193
*516 FILLER_0_1_205
*517 FILLER_0_1_217
*518 FILLER_0_1_223
*519 FILLER_0_1_225
*520 FILLER_0_1_237
*521 FILLER_0_1_249
*522 FILLER_0_1_261
*523 FILLER_0_1_27
*524 FILLER_0_1_273
*525 FILLER_0_1_279
*526 FILLER_0_1_281
*527 FILLER_0_1_293
*528 FILLER_0_1_3
*529 FILLER_0_1_305
*530 FILLER_0_1_317
*531 FILLER_0_1_329
*532 FILLER_0_1_39
*533 FILLER_0_1_51
*534 FILLER_0_1_55
*535 FILLER_0_1_57
*536 FILLER_0_1_69
*537 FILLER_0_1_81
*538 FILLER_0_1_93
*539 FILLER_0_20_109
*540 FILLER_0_20_121
*541 FILLER_0_20_133
*542 FILLER_0_20_139
*543 FILLER_0_20_141
*544 FILLER_0_20_15
*545 FILLER_0_20_153
*546 FILLER_0_20_165
*547 FILLER_0_20_177
*548 FILLER_0_20_189
*549 FILLER_0_20_195
*550 FILLER_0_20_197
*551 FILLER_0_20_209
*552 FILLER_0_20_221
*553 FILLER_0_20_233
*554 FILLER_0_20_245
*555 FILLER_0_20_251
*556 FILLER_0_20_253
*557 FILLER_0_20_265
*558 FILLER_0_20_27
*559 FILLER_0_20_277
*560 FILLER_0_20_289
*561 FILLER_0_20_29
*562 FILLER_0_20_3
*563 FILLER_0_20_301
*564 FILLER_0_20_307
*565 FILLER_0_20_309
*566 FILLER_0_20_321
*567 FILLER_0_20_333
*568 FILLER_0_20_41
*569 FILLER_0_20_53
*570 FILLER_0_20_65
*571 FILLER_0_20_77
*572 FILLER_0_20_83
*573 FILLER_0_20_85
*574 FILLER_0_20_97
*575 FILLER_0_21_105
*576 FILLER_0_21_111
*577 FILLER_0_21_113
*578 FILLER_0_21_125
*579 FILLER_0_21_137
*580 FILLER_0_21_149
*581 FILLER_0_21_15
*582 FILLER_0_21_161
*583 FILLER_0_21_167
*584 FILLER_0_21_169
*585 FILLER_0_21_181
*586 FILLER_0_21_193
*587 FILLER_0_21_205
*588 FILLER_0_21_217
*589 FILLER_0_21_223
*590 FILLER_0_21_225
*591 FILLER_0_21_237
*592 FILLER_0_21_249
*593 FILLER_0_21_261
*594 FILLER_0_21_27
*595 FILLER_0_21_273
*596 FILLER_0_21_279
*597 FILLER_0_21_281
*598 FILLER_0_21_293
*599 FILLER_0_21_3
*600 FILLER_0_21_305
*601 FILLER_0_21_317
*602 FILLER_0_21_329
*603 FILLER_0_21_39
*604 FILLER_0_21_51
*605 FILLER_0_21_55
*606 FILLER_0_21_57
*607 FILLER_0_21_69
*608 FILLER_0_21_81
*609 FILLER_0_21_93
*610 FILLER_0_22_109
*611 FILLER_0_22_121
*612 FILLER_0_22_133
*613 FILLER_0_22_139
*614 FILLER_0_22_141
*615 FILLER_0_22_15
*616 FILLER_0_22_153
*617 FILLER_0_22_165
*618 FILLER_0_22_177
*619 FILLER_0_22_189
*620 FILLER_0_22_195
*621 FILLER_0_22_197
*622 FILLER_0_22_209
*623 FILLER_0_22_221
*624 FILLER_0_22_233
*625 FILLER_0_22_245
*626 FILLER_0_22_251
*627 FILLER_0_22_253
*628 FILLER_0_22_265
*629 FILLER_0_22_27
*630 FILLER_0_22_277
*631 FILLER_0_22_289
*632 FILLER_0_22_29
*633 FILLER_0_22_3
*634 FILLER_0_22_301
*635 FILLER_0_22_307
*636 FILLER_0_22_309
*637 FILLER_0_22_321
*638 FILLER_0_22_333
*639 FILLER_0_22_41
*640 FILLER_0_22_53
*641 FILLER_0_22_65
*642 FILLER_0_22_77
*643 FILLER_0_22_83
*644 FILLER_0_22_85
*645 FILLER_0_22_97
*646 FILLER_0_23_105
*647 FILLER_0_23_111
*648 FILLER_0_23_113
*649 FILLER_0_23_125
*650 FILLER_0_23_137
*651 FILLER_0_23_149
*652 FILLER_0_23_15
*653 FILLER_0_23_161
*654 FILLER_0_23_167
*655 FILLER_0_23_169
*656 FILLER_0_23_181
*657 FILLER_0_23_193
*658 FILLER_0_23_205
*659 FILLER_0_23_217
*660 FILLER_0_23_223
*661 FILLER_0_23_225
*662 FILLER_0_23_237
*663 FILLER_0_23_249
*664 FILLER_0_23_261
*665 FILLER_0_23_27
*666 FILLER_0_23_273
*667 FILLER_0_23_279
*668 FILLER_0_23_281
*669 FILLER_0_23_293
*670 FILLER_0_23_3
*671 FILLER_0_23_305
*672 FILLER_0_23_317
*673 FILLER_0_23_329
*674 FILLER_0_23_39
*675 FILLER_0_23_51
*676 FILLER_0_23_55
*677 FILLER_0_23_57
*678 FILLER_0_23_69
*679 FILLER_0_23_81
*680 FILLER_0_23_93
*681 FILLER_0_24_109
*682 FILLER_0_24_121
*683 FILLER_0_24_133
*684 FILLER_0_24_139
*685 FILLER_0_24_141
*686 FILLER_0_24_15
*687 FILLER_0_24_153
*688 FILLER_0_24_165
*689 FILLER_0_24_177
*690 FILLER_0_24_189
*691 FILLER_0_24_195
*692 FILLER_0_24_197
*693 FILLER_0_24_209
*694 FILLER_0_24_221
*695 FILLER_0_24_233
*696 FILLER_0_24_245
*697 FILLER_0_24_251
*698 FILLER_0_24_253
*699 FILLER_0_24_265
*700 FILLER_0_24_27
*701 FILLER_0_24_277
*702 FILLER_0_24_289
*703 FILLER_0_24_29
*704 FILLER_0_24_3
*705 FILLER_0_24_301
*706 FILLER_0_24_307
*707 FILLER_0_24_309
*708 FILLER_0_24_321
*709 FILLER_0_24_333
*710 FILLER_0_24_41
*711 FILLER_0_24_53
*712 FILLER_0_24_65
*713 FILLER_0_24_77
*714 FILLER_0_24_83
*715 FILLER_0_24_85
*716 FILLER_0_24_97
*717 FILLER_0_25_105
*718 FILLER_0_25_111
*719 FILLER_0_25_113
*720 FILLER_0_25_125
*721 FILLER_0_25_137
*722 FILLER_0_25_149
*723 FILLER_0_25_15
*724 FILLER_0_25_161
*725 FILLER_0_25_167
*726 FILLER_0_25_169
*727 FILLER_0_25_181
*728 FILLER_0_25_193
*729 FILLER_0_25_205
*730 FILLER_0_25_217
*731 FILLER_0_25_223
*732 FILLER_0_25_225
*733 FILLER_0_25_237
*734 FILLER_0_25_249
*735 FILLER_0_25_261
*736 FILLER_0_25_27
*737 FILLER_0_25_273
*738 FILLER_0_25_279
*739 FILLER_0_25_281
*740 FILLER_0_25_293
*741 FILLER_0_25_3
*742 FILLER_0_25_305
*743 FILLER_0_25_317
*744 FILLER_0_25_329
*745 FILLER_0_25_39
*746 FILLER_0_25_51
*747 FILLER_0_25_55
*748 FILLER_0_25_57
*749 FILLER_0_25_69
*750 FILLER_0_25_81
*751 FILLER_0_25_93
*752 FILLER_0_26_109
*753 FILLER_0_26_121
*754 FILLER_0_26_133
*755 FILLER_0_26_139
*756 FILLER_0_26_141
*757 FILLER_0_26_15
*758 FILLER_0_26_153
*759 FILLER_0_26_165
*760 FILLER_0_26_177
*761 FILLER_0_26_189
*762 FILLER_0_26_195
*763 FILLER_0_26_197
*764 FILLER_0_26_209
*765 FILLER_0_26_221
*766 FILLER_0_26_233
*767 FILLER_0_26_245
*768 FILLER_0_26_251
*769 FILLER_0_26_253
*770 FILLER_0_26_265
*771 FILLER_0_26_27
*772 FILLER_0_26_277
*773 FILLER_0_26_289
*774 FILLER_0_26_29
*775 FILLER_0_26_3
*776 FILLER_0_26_301
*777 FILLER_0_26_307
*778 FILLER_0_26_309
*779 FILLER_0_26_321
*780 FILLER_0_26_333
*781 FILLER_0_26_41
*782 FILLER_0_26_53
*783 FILLER_0_26_65
*784 FILLER_0_26_77
*785 FILLER_0_26_83
*786 FILLER_0_26_85
*787 FILLER_0_26_97
*788 FILLER_0_27_105
*789 FILLER_0_27_111
*790 FILLER_0_27_113
*791 FILLER_0_27_125
*792 FILLER_0_27_137
*793 FILLER_0_27_149
*794 FILLER_0_27_15
*795 FILLER_0_27_161
*796 FILLER_0_27_167
*797 FILLER_0_27_169
*798 FILLER_0_27_181
*799 FILLER_0_27_193
*800 FILLER_0_27_205
*801 FILLER_0_27_217
*802 FILLER_0_27_223
*803 FILLER_0_27_225
*804 FILLER_0_27_237
*805 FILLER_0_27_249
*806 FILLER_0_27_261
*807 FILLER_0_27_27
*808 FILLER_0_27_273
*809 FILLER_0_27_279
*810 FILLER_0_27_281
*811 FILLER_0_27_293
*812 FILLER_0_27_3
*813 FILLER_0_27_305
*814 FILLER_0_27_317
*815 FILLER_0_27_329
*816 FILLER_0_27_39
*817 FILLER_0_27_51
*818 FILLER_0_27_55
*819 FILLER_0_27_57
*820 FILLER_0_27_69
*821 FILLER_0_27_81
*822 FILLER_0_27_93
*823 FILLER_0_28_109
*824 FILLER_0_28_121
*825 FILLER_0_28_133
*826 FILLER_0_28_139
*827 FILLER_0_28_141
*828 FILLER_0_28_15
*829 FILLER_0_28_153
*830 FILLER_0_28_165
*831 FILLER_0_28_177
*832 FILLER_0_28_189
*833 FILLER_0_28_195
*834 FILLER_0_28_197
*835 FILLER_0_28_209
*836 FILLER_0_28_221
*837 FILLER_0_28_233
*838 FILLER_0_28_245
*839 FILLER_0_28_251
*840 FILLER_0_28_253
*841 FILLER_0_28_265
*842 FILLER_0_28_27
*843 FILLER_0_28_277
*844 FILLER_0_28_289
*845 FILLER_0_28_29
*846 FILLER_0_28_3
*847 FILLER_0_28_301
*848 FILLER_0_28_307
*849 FILLER_0_28_309
*850 FILLER_0_28_321
*851 FILLER_0_28_333
*852 FILLER_0_28_41
*853 FILLER_0_28_53
*854 FILLER_0_28_65
*855 FILLER_0_28_77
*856 FILLER_0_28_83
*857 FILLER_0_28_85
*858 FILLER_0_28_97
*859 FILLER_0_29_105
*860 FILLER_0_29_111
*861 FILLER_0_29_113
*862 FILLER_0_29_125
*863 FILLER_0_29_137
*864 FILLER_0_29_149
*865 FILLER_0_29_15
*866 FILLER_0_29_161
*867 FILLER_0_29_167
*868 FILLER_0_29_169
*869 FILLER_0_29_181
*870 FILLER_0_29_193
*871 FILLER_0_29_205
*872 FILLER_0_29_217
*873 FILLER_0_29_223
*874 FILLER_0_29_225
*875 FILLER_0_29_237
*876 FILLER_0_29_249
*877 FILLER_0_29_261
*878 FILLER_0_29_27
*879 FILLER_0_29_273
*880 FILLER_0_29_279
*881 FILLER_0_29_281
*882 FILLER_0_29_293
*883 FILLER_0_29_3
*884 FILLER_0_29_305
*885 FILLER_0_29_317
*886 FILLER_0_29_329
*887 FILLER_0_29_39
*888 FILLER_0_29_51
*889 FILLER_0_29_55
*890 FILLER_0_29_57
*891 FILLER_0_29_69
*892 FILLER_0_29_81
*893 FILLER_0_29_93
*894 FILLER_0_2_109
*895 FILLER_0_2_121
*896 FILLER_0_2_133
*897 FILLER_0_2_139
*898 FILLER_0_2_141
*899 FILLER_0_2_15
*900 FILLER_0_2_153
*901 FILLER_0_2_165
*902 FILLER_0_2_177
*903 FILLER_0_2_189
*904 FILLER_0_2_195
*905 FILLER_0_2_197
*906 FILLER_0_2_209
*907 FILLER_0_2_221
*908 FILLER_0_2_233
*909 FILLER_0_2_245
*910 FILLER_0_2_251
*911 FILLER_0_2_253
*912 FILLER_0_2_265
*913 FILLER_0_2_27
*914 FILLER_0_2_277
*915 FILLER_0_2_289
*916 FILLER_0_2_29
*917 FILLER_0_2_3
*918 FILLER_0_2_301
*919 FILLER_0_2_307
*920 FILLER_0_2_309
*921 FILLER_0_2_321
*922 FILLER_0_2_333
*923 FILLER_0_2_41
*924 FILLER_0_2_53
*925 FILLER_0_2_65
*926 FILLER_0_2_77
*927 FILLER_0_2_83
*928 FILLER_0_2_85
*929 FILLER_0_2_97
*930 FILLER_0_30_109
*931 FILLER_0_30_121
*932 FILLER_0_30_133
*933 FILLER_0_30_139
*934 FILLER_0_30_141
*935 FILLER_0_30_15
*936 FILLER_0_30_153
*937 FILLER_0_30_165
*938 FILLER_0_30_177
*939 FILLER_0_30_189
*940 FILLER_0_30_195
*941 FILLER_0_30_197
*942 FILLER_0_30_209
*943 FILLER_0_30_221
*944 FILLER_0_30_233
*945 FILLER_0_30_245
*946 FILLER_0_30_251
*947 FILLER_0_30_253
*948 FILLER_0_30_265
*949 FILLER_0_30_27
*950 FILLER_0_30_277
*951 FILLER_0_30_289
*952 FILLER_0_30_29
*953 FILLER_0_30_3
*954 FILLER_0_30_301
*955 FILLER_0_30_307
*956 FILLER_0_30_309
*957 FILLER_0_30_321
*958 FILLER_0_30_333
*959 FILLER_0_30_41
*960 FILLER_0_30_53
*961 FILLER_0_30_65
*962 FILLER_0_30_77
*963 FILLER_0_30_83
*964 FILLER_0_30_85
*965 FILLER_0_30_97
*966 FILLER_0_31_105
*967 FILLER_0_31_111
*968 FILLER_0_31_113
*969 FILLER_0_31_125
*970 FILLER_0_31_137
*971 FILLER_0_31_149
*972 FILLER_0_31_15
*973 FILLER_0_31_161
*974 FILLER_0_31_167
*975 FILLER_0_31_169
*976 FILLER_0_31_181
*977 FILLER_0_31_193
*978 FILLER_0_31_205
*979 FILLER_0_31_217
*980 FILLER_0_31_223
*981 FILLER_0_31_225
*982 FILLER_0_31_237
*983 FILLER_0_31_249
*984 FILLER_0_31_261
*985 FILLER_0_31_27
*986 FILLER_0_31_273
*987 FILLER_0_31_279
*988 FILLER_0_31_281
*989 FILLER_0_31_293
*990 FILLER_0_31_3
*991 FILLER_0_31_305
*992 FILLER_0_31_317
*993 FILLER_0_31_329
*994 FILLER_0_31_39
*995 FILLER_0_31_51
*996 FILLER_0_31_55
*997 FILLER_0_31_57
*998 FILLER_0_31_69
*999 FILLER_0_31_81
*1000 FILLER_0_31_93
*1001 FILLER_0_32_109
*1002 FILLER_0_32_121
*1003 FILLER_0_32_133
*1004 FILLER_0_32_139
*1005 FILLER_0_32_141
*1006 FILLER_0_32_15
*1007 FILLER_0_32_153
*1008 FILLER_0_32_165
*1009 FILLER_0_32_177
*1010 FILLER_0_32_189
*1011 FILLER_0_32_195
*1012 FILLER_0_32_197
*1013 FILLER_0_32_209
*1014 FILLER_0_32_221
*1015 FILLER_0_32_233
*1016 FILLER_0_32_245
*1017 FILLER_0_32_251
*1018 FILLER_0_32_269
*1019 FILLER_0_32_27
*1020 FILLER_0_32_281
*1021 FILLER_0_32_285
*1022 FILLER_0_32_29
*1023 FILLER_0_32_3
*1024 FILLER_0_32_302
*1025 FILLER_0_32_309
*1026 FILLER_0_32_321
*1027 FILLER_0_32_333
*1028 FILLER_0_32_41
*1029 FILLER_0_32_53
*1030 FILLER_0_32_65
*1031 FILLER_0_32_77
*1032 FILLER_0_32_83
*1033 FILLER_0_32_85
*1034 FILLER_0_32_97
*1035 FILLER_0_33_105
*1036 FILLER_0_33_111
*1037 FILLER_0_33_113
*1038 FILLER_0_33_125
*1039 FILLER_0_33_137
*1040 FILLER_0_33_149
*1041 FILLER_0_33_15
*1042 FILLER_0_33_161
*1043 FILLER_0_33_167
*1044 FILLER_0_33_169
*1045 FILLER_0_33_181
*1046 FILLER_0_33_193
*1047 FILLER_0_33_205
*1048 FILLER_0_33_217
*1049 FILLER_0_33_223
*1050 FILLER_0_33_225
*1051 FILLER_0_33_233
*1052 FILLER_0_33_242
*1053 FILLER_0_33_247
*1054 FILLER_0_33_259
*1055 FILLER_0_33_263
*1056 FILLER_0_33_27
*1057 FILLER_0_33_278
*1058 FILLER_0_33_290
*1059 FILLER_0_33_299
*1060 FILLER_0_33_3
*1061 FILLER_0_33_311
*1062 FILLER_0_33_315
*1063 FILLER_0_33_332
*1064 FILLER_0_33_39
*1065 FILLER_0_33_51
*1066 FILLER_0_33_55
*1067 FILLER_0_33_57
*1068 FILLER_0_33_69
*1069 FILLER_0_33_81
*1070 FILLER_0_33_93
*1071 FILLER_0_34_109
*1072 FILLER_0_34_121
*1073 FILLER_0_34_133
*1074 FILLER_0_34_139
*1075 FILLER_0_34_141
*1076 FILLER_0_34_15
*1077 FILLER_0_34_153
*1078 FILLER_0_34_165
*1079 FILLER_0_34_177
*1080 FILLER_0_34_189
*1081 FILLER_0_34_195
*1082 FILLER_0_34_197
*1083 FILLER_0_34_209
*1084 FILLER_0_34_213
*1085 FILLER_0_34_234
*1086 FILLER_0_34_27
*1087 FILLER_0_34_29
*1088 FILLER_0_34_3
*1089 FILLER_0_34_306
*1090 FILLER_0_34_309
*1091 FILLER_0_34_328
*1092 FILLER_0_34_334
*1093 FILLER_0_34_41
*1094 FILLER_0_34_53
*1095 FILLER_0_34_65
*1096 FILLER_0_34_77
*1097 FILLER_0_34_83
*1098 FILLER_0_34_85
*1099 FILLER_0_34_97
*1100 FILLER_0_35_105
*1101 FILLER_0_35_111
*1102 FILLER_0_35_113
*1103 FILLER_0_35_125
*1104 FILLER_0_35_137
*1105 FILLER_0_35_149
*1106 FILLER_0_35_15
*1107 FILLER_0_35_161
*1108 FILLER_0_35_167
*1109 FILLER_0_35_169
*1110 FILLER_0_35_181
*1111 FILLER_0_35_193
*1112 FILLER_0_35_205
*1113 FILLER_0_35_217
*1114 FILLER_0_35_223
*1115 FILLER_0_35_225
*1116 FILLER_0_35_27
*1117 FILLER_0_35_270
*1118 FILLER_0_35_278
*1119 FILLER_0_35_281
*1120 FILLER_0_35_289
*1121 FILLER_0_35_3
*1122 FILLER_0_35_312
*1123 FILLER_0_35_320
*1124 FILLER_0_35_324
*1125 FILLER_0_35_328
*1126 FILLER_0_35_334
*1127 FILLER_0_35_39
*1128 FILLER_0_35_51
*1129 FILLER_0_35_55
*1130 FILLER_0_35_57
*1131 FILLER_0_35_69
*1132 FILLER_0_35_81
*1133 FILLER_0_35_93
*1134 FILLER_0_36_109
*1135 FILLER_0_36_121
*1136 FILLER_0_36_133
*1137 FILLER_0_36_139
*1138 FILLER_0_36_141
*1139 FILLER_0_36_15
*1140 FILLER_0_36_153
*1141 FILLER_0_36_165
*1142 FILLER_0_36_177
*1143 FILLER_0_36_189
*1144 FILLER_0_36_195
*1145 FILLER_0_36_197
*1146 FILLER_0_36_209
*1147 FILLER_0_36_236
*1148 FILLER_0_36_245
*1149 FILLER_0_36_251
*1150 FILLER_0_36_27
*1151 FILLER_0_36_271
*1152 FILLER_0_36_288
*1153 FILLER_0_36_29
*1154 FILLER_0_36_292
*1155 FILLER_0_36_299
*1156 FILLER_0_36_3
*1157 FILLER_0_36_303
*1158 FILLER_0_36_320
*1159 FILLER_0_36_329
*1160 FILLER_0_36_41
*1161 FILLER_0_36_53
*1162 FILLER_0_36_65
*1163 FILLER_0_36_77
*1164 FILLER_0_36_83
*1165 FILLER_0_36_85
*1166 FILLER_0_36_97
*1167 FILLER_0_37_105
*1168 FILLER_0_37_111
*1169 FILLER_0_37_113
*1170 FILLER_0_37_125
*1171 FILLER_0_37_137
*1172 FILLER_0_37_149
*1173 FILLER_0_37_15
*1174 FILLER_0_37_161
*1175 FILLER_0_37_167
*1176 FILLER_0_37_169
*1177 FILLER_0_37_181
*1178 FILLER_0_37_193
*1179 FILLER_0_37_205
*1180 FILLER_0_37_217
*1181 FILLER_0_37_223
*1182 FILLER_0_37_225
*1183 FILLER_0_37_231
*1184 FILLER_0_37_235
*1185 FILLER_0_37_242
*1186 FILLER_0_37_253
*1187 FILLER_0_37_27
*1188 FILLER_0_37_271
*1189 FILLER_0_37_279
*1190 FILLER_0_37_281
*1191 FILLER_0_37_297
*1192 FILLER_0_37_3
*1193 FILLER_0_37_311
*1194 FILLER_0_37_39
*1195 FILLER_0_37_51
*1196 FILLER_0_37_55
*1197 FILLER_0_37_57
*1198 FILLER_0_37_69
*1199 FILLER_0_37_81
*1200 FILLER_0_37_93
*1201 FILLER_0_38_10
*1202 FILLER_0_38_102
*1203 FILLER_0_38_106
*1204 FILLER_0_38_110
*1205 FILLER_0_38_113
*1206 FILLER_0_38_118
*1207 FILLER_0_38_122
*1208 FILLER_0_38_126
*1209 FILLER_0_38_130
*1210 FILLER_0_38_134
*1211 FILLER_0_38_14
*1212 FILLER_0_38_144
*1213 FILLER_0_38_150
*1214 FILLER_0_38_154
*1215 FILLER_0_38_158
*1216 FILLER_0_38_162
*1217 FILLER_0_38_166
*1218 FILLER_0_38_169
*1219 FILLER_0_38_174
*1220 FILLER_0_38_178
*1221 FILLER_0_38_18
*1222 FILLER_0_38_182
*1223 FILLER_0_38_186
*1224 FILLER_0_38_191
*1225 FILLER_0_38_195
*1226 FILLER_0_38_197
*1227 FILLER_0_38_205
*1228 FILLER_0_38_22
*1229 FILLER_0_38_225
*1230 FILLER_0_38_233
*1231 FILLER_0_38_250
*1232 FILLER_0_38_253
*1233 FILLER_0_38_281
*1234 FILLER_0_38_296
*1235 FILLER_0_38_300
*1236 FILLER_0_38_32
*1237 FILLER_0_38_320
*1238 FILLER_0_38_327
*1239 FILLER_0_38_38
*1240 FILLER_0_38_42
*1241 FILLER_0_38_46
*1242 FILLER_0_38_50
*1243 FILLER_0_38_54
*1244 FILLER_0_38_57
*1245 FILLER_0_38_6
*1246 FILLER_0_38_62
*1247 FILLER_0_38_66
*1248 FILLER_0_38_70
*1249 FILLER_0_38_74
*1250 FILLER_0_38_78
*1251 FILLER_0_38_88
*1252 FILLER_0_38_94
*1253 FILLER_0_38_98
*1254 FILLER_0_3_105
*1255 FILLER_0_3_111
*1256 FILLER_0_3_113
*1257 FILLER_0_3_125
*1258 FILLER_0_3_137
*1259 FILLER_0_3_149
*1260 FILLER_0_3_15
*1261 FILLER_0_3_161
*1262 FILLER_0_3_167
*1263 FILLER_0_3_169
*1264 FILLER_0_3_181
*1265 FILLER_0_3_193
*1266 FILLER_0_3_205
*1267 FILLER_0_3_217
*1268 FILLER_0_3_223
*1269 FILLER_0_3_225
*1270 FILLER_0_3_237
*1271 FILLER_0_3_249
*1272 FILLER_0_3_261
*1273 FILLER_0_3_27
*1274 FILLER_0_3_273
*1275 FILLER_0_3_279
*1276 FILLER_0_3_281
*1277 FILLER_0_3_293
*1278 FILLER_0_3_3
*1279 FILLER_0_3_305
*1280 FILLER_0_3_317
*1281 FILLER_0_3_329
*1282 FILLER_0_3_39
*1283 FILLER_0_3_51
*1284 FILLER_0_3_55
*1285 FILLER_0_3_57
*1286 FILLER_0_3_69
*1287 FILLER_0_3_81
*1288 FILLER_0_3_93
*1289 FILLER_0_4_109
*1290 FILLER_0_4_121
*1291 FILLER_0_4_133
*1292 FILLER_0_4_139
*1293 FILLER_0_4_141
*1294 FILLER_0_4_15
*1295 FILLER_0_4_153
*1296 FILLER_0_4_165
*1297 FILLER_0_4_177
*1298 FILLER_0_4_189
*1299 FILLER_0_4_195
*1300 FILLER_0_4_197
*1301 FILLER_0_4_209
*1302 FILLER_0_4_221
*1303 FILLER_0_4_233
*1304 FILLER_0_4_245
*1305 FILLER_0_4_251
*1306 FILLER_0_4_253
*1307 FILLER_0_4_265
*1308 FILLER_0_4_27
*1309 FILLER_0_4_277
*1310 FILLER_0_4_289
*1311 FILLER_0_4_29
*1312 FILLER_0_4_3
*1313 FILLER_0_4_301
*1314 FILLER_0_4_307
*1315 FILLER_0_4_309
*1316 FILLER_0_4_321
*1317 FILLER_0_4_333
*1318 FILLER_0_4_41
*1319 FILLER_0_4_53
*1320 FILLER_0_4_65
*1321 FILLER_0_4_77
*1322 FILLER_0_4_83
*1323 FILLER_0_4_85
*1324 FILLER_0_4_97
*1325 FILLER_0_5_105
*1326 FILLER_0_5_111
*1327 FILLER_0_5_113
*1328 FILLER_0_5_125
*1329 FILLER_0_5_137
*1330 FILLER_0_5_149
*1331 FILLER_0_5_15
*1332 FILLER_0_5_161
*1333 FILLER_0_5_167
*1334 FILLER_0_5_169
*1335 FILLER_0_5_181
*1336 FILLER_0_5_193
*1337 FILLER_0_5_205
*1338 FILLER_0_5_217
*1339 FILLER_0_5_223
*1340 FILLER_0_5_225
*1341 FILLER_0_5_237
*1342 FILLER_0_5_249
*1343 FILLER_0_5_261
*1344 FILLER_0_5_27
*1345 FILLER_0_5_273
*1346 FILLER_0_5_279
*1347 FILLER_0_5_281
*1348 FILLER_0_5_293
*1349 FILLER_0_5_3
*1350 FILLER_0_5_305
*1351 FILLER_0_5_317
*1352 FILLER_0_5_329
*1353 FILLER_0_5_39
*1354 FILLER_0_5_51
*1355 FILLER_0_5_55
*1356 FILLER_0_5_57
*1357 FILLER_0_5_69
*1358 FILLER_0_5_81
*1359 FILLER_0_5_93
*1360 FILLER_0_6_109
*1361 FILLER_0_6_121
*1362 FILLER_0_6_133
*1363 FILLER_0_6_139
*1364 FILLER_0_6_141
*1365 FILLER_0_6_15
*1366 FILLER_0_6_153
*1367 FILLER_0_6_165
*1368 FILLER_0_6_177
*1369 FILLER_0_6_189
*1370 FILLER_0_6_195
*1371 FILLER_0_6_197
*1372 FILLER_0_6_209
*1373 FILLER_0_6_221
*1374 FILLER_0_6_233
*1375 FILLER_0_6_245
*1376 FILLER_0_6_251
*1377 FILLER_0_6_253
*1378 FILLER_0_6_265
*1379 FILLER_0_6_27
*1380 FILLER_0_6_277
*1381 FILLER_0_6_289
*1382 FILLER_0_6_29
*1383 FILLER_0_6_3
*1384 FILLER_0_6_301
*1385 FILLER_0_6_307
*1386 FILLER_0_6_309
*1387 FILLER_0_6_321
*1388 FILLER_0_6_333
*1389 FILLER_0_6_41
*1390 FILLER_0_6_53
*1391 FILLER_0_6_65
*1392 FILLER_0_6_77
*1393 FILLER_0_6_83
*1394 FILLER_0_6_85
*1395 FILLER_0_6_97
*1396 FILLER_0_7_105
*1397 FILLER_0_7_111
*1398 FILLER_0_7_113
*1399 FILLER_0_7_125
*1400 FILLER_0_7_137
*1401 FILLER_0_7_149
*1402 FILLER_0_7_15
*1403 FILLER_0_7_161
*1404 FILLER_0_7_167
*1405 FILLER_0_7_169
*1406 FILLER_0_7_181
*1407 FILLER_0_7_193
*1408 FILLER_0_7_205
*1409 FILLER_0_7_217
*1410 FILLER_0_7_223
*1411 FILLER_0_7_225
*1412 FILLER_0_7_237
*1413 FILLER_0_7_249
*1414 FILLER_0_7_261
*1415 FILLER_0_7_27
*1416 FILLER_0_7_273
*1417 FILLER_0_7_279
*1418 FILLER_0_7_281
*1419 FILLER_0_7_293
*1420 FILLER_0_7_3
*1421 FILLER_0_7_305
*1422 FILLER_0_7_317
*1423 FILLER_0_7_329
*1424 FILLER_0_7_39
*1425 FILLER_0_7_51
*1426 FILLER_0_7_55
*1427 FILLER_0_7_57
*1428 FILLER_0_7_69
*1429 FILLER_0_7_81
*1430 FILLER_0_7_93
*1431 FILLER_0_8_109
*1432 FILLER_0_8_121
*1433 FILLER_0_8_133
*1434 FILLER_0_8_139
*1435 FILLER_0_8_141
*1436 FILLER_0_8_15
*1437 FILLER_0_8_153
*1438 FILLER_0_8_165
*1439 FILLER_0_8_177
*1440 FILLER_0_8_189
*1441 FILLER_0_8_195
*1442 FILLER_0_8_197
*1443 FILLER_0_8_209
*1444 FILLER_0_8_221
*1445 FILLER_0_8_233
*1446 FILLER_0_8_245
*1447 FILLER_0_8_251
*1448 FILLER_0_8_253
*1449 FILLER_0_8_265
*1450 FILLER_0_8_27
*1451 FILLER_0_8_277
*1452 FILLER_0_8_289
*1453 FILLER_0_8_29
*1454 FILLER_0_8_3
*1455 FILLER_0_8_301
*1456 FILLER_0_8_307
*1457 FILLER_0_8_309
*1458 FILLER_0_8_321
*1459 FILLER_0_8_333
*1460 FILLER_0_8_41
*1461 FILLER_0_8_53
*1462 FILLER_0_8_65
*1463 FILLER_0_8_77
*1464 FILLER_0_8_83
*1465 FILLER_0_8_85
*1466 FILLER_0_8_97
*1467 FILLER_0_9_105
*1468 FILLER_0_9_111
*1469 FILLER_0_9_113
*1470 FILLER_0_9_125
*1471 FILLER_0_9_137
*1472 FILLER_0_9_149
*1473 FILLER_0_9_15
*1474 FILLER_0_9_161
*1475 FILLER_0_9_167
*1476 FILLER_0_9_169
*1477 FILLER_0_9_181