*SPEF "ieee 1481-1999"
*DESIGN "tt_um_lancemitrex"
*DATE "17:03:22 Friday April 19, 2024"
*VENDOR "The OpenROAD Project"
*PROGRAM "OpenROAD"
*VERSION "0889970d1790a2617e69f253221b8bd7626e51dc"
*DESIGN_FLOW "NAME_SCOPE LOCAL" "PIN_CAP NONE"
*DIVIDER /
*DELIMITER :
*BUS_DELIMITER []
*T_UNIT 1 NS
*C_UNIT 1 PF
*R_UNIT 1 OHM
*L_UNIT 1 HENRY

*NAME_MAP
*3 clk
*4 ena
*5 rst_n
*6 ui_in[0]
*7 ui_in[1]
*8 ui_in[2]
*9 ui_in[3]
*10 ui_in[4]
*11 ui_in[5]
*12 ui_in[6]
*13 ui_in[7]
*14 uio_in[0]
*15 uio_in[1]
*16 uio_in[2]
*17 uio_in[3]
*18 uio_in[4]
*19 uio_in[5]
*20 uio_in[6]
*21 uio_in[7]
*22 net10
*23 net11
*24 net12
*25 net13
*26 net14
*27 net15
*28 net16
*29 net17
*30 net18
*31 net19
*32 net20
*33 net21
*34 net22
*35 net23
*36 net24
*37 net25
*38 uo_out[0]
*39 uo_out[1]
*40 uo_out[2]
*41 uo_out[3]
*42 uo_out[4]
*43 uo_out[5]
*44 uo_out[6]
*45 net26
*46 DEBUG_SIGS_GTKWAVE\.\@0\$slideswitch\[0\]
*47 DEBUG_SIGS_GTKWAVE\.\@0\$slideswitch\[1\]
*48 DEBUG_SIGS_GTKWAVE\.\@0\$slideswitch\[2\]
*49 DEBUG_SIGS_GTKWAVE\.\@0\$slideswitch\[3\]
*50 DEBUG_SIGS_GTKWAVE\.\@0\$slideswitch\[4\]
*51 DEBUG_SIGS_GTKWAVE\.\@0\$slideswitch\[5\]
*52 DEBUG_SIGS_GTKWAVE\.\@0\$slideswitch\[6\]
*53 DEBUG_SIGS_GTKWAVE\.\@0\$slideswitch\[7\]
*54 DEBUG_SIGS_GTKWAVE\.\@0\$sseg_segment_n\[0\]
*55 DEBUG_SIGS_GTKWAVE\.\@0\$sseg_segment_n\[1\]
*56 DEBUG_SIGS_GTKWAVE\.\@0\$sseg_segment_n\[2\]
*57 DEBUG_SIGS_GTKWAVE\.\@0\$sseg_segment_n\[3\]
*58 DEBUG_SIGS_GTKWAVE\.\@0\$sseg_segment_n\[4\]
*59 DEBUG_SIGS_GTKWAVE\.\@0\$sseg_segment_n\[5\]
*60 DEBUG_SIGS_GTKWAVE\.\@0\$sseg_segment_n\[6\]
*61 DEBUG_SIGS_GTKWAVE\.\/digit\[0\]\.\/leds\[0\]\.\/\/\@0\$viz_lit
*62 DEBUG_SIGS_GTKWAVE\.\/digit\[0\]\.\/leds\[1\]\.\/\/\@0\$viz_lit
*63 DEBUG_SIGS_GTKWAVE\.\/digit\[0\]\.\/leds\[2\]\.\/\/\@0\$viz_lit
*64 DEBUG_SIGS_GTKWAVE\.\/digit\[0\]\.\/leds\[3\]\.\/\/\@0\$viz_lit
*65 DEBUG_SIGS_GTKWAVE\.\/digit\[0\]\.\/leds\[4\]\.\/\/\@0\$viz_lit
*66 DEBUG_SIGS_GTKWAVE\.\/digit\[0\]\.\/leds\[5\]\.\/\/\@0\$viz_lit
*67 DEBUG_SIGS_GTKWAVE\.\/digit\[0\]\.\/leds\[6\]\.\/\/\@0\$viz_lit
*68 DEBUG_SIGS_GTKWAVE\.\/fpga_pins\.\/fpga\.P_kyad_twh\.\/\/\/\@0\$cnt\[0\]
*69 DEBUG_SIGS_GTKWAVE\.\/fpga_pins\.\/fpga\.P_kyad_twh\.\/\/\/\@0\$cnt\[10\]
*70 DEBUG_SIGS_GTKWAVE\.\/fpga_pins\.\/fpga\.P_kyad_twh\.\/\/\/\@0\$cnt\[11\]
*71 DEBUG_SIGS_GTKWAVE\.\/fpga_pins\.\/fpga\.P_kyad_twh\.\/\/\/\@0\$cnt\[12\]
*72 DEBUG_SIGS_GTKWAVE\.\/fpga_pins\.\/fpga\.P_kyad_twh\.\/\/\/\@0\$cnt\[13\]
*73 DEBUG_SIGS_GTKWAVE\.\/fpga_pins\.\/fpga\.P_kyad_twh\.\/\/\/\@0\$cnt\[14\]
*74 DEBUG_SIGS_GTKWAVE\.\/fpga_pins\.\/fpga\.P_kyad_twh\.\/\/\/\@0\$cnt\[15\]
*75 DEBUG_SIGS_GTKWAVE\.\/fpga_pins\.\/fpga\.P_kyad_twh\.\/\/\/\@0\$cnt\[16\]
*76 DEBUG_SIGS_GTKWAVE\.\/fpga_pins\.\/fpga\.P_kyad_twh\.\/\/\/\@0\$cnt\[17\]
*77 DEBUG_SIGS_GTKWAVE\.\/fpga_pins\.\/fpga\.P_kyad_twh\.\/\/\/\@0\$cnt\[18\]
*78 DEBUG_SIGS_GTKWAVE\.\/fpga_pins\.\/fpga\.P_kyad_twh\.\/\/\/\@0\$cnt\[19\]
*79 DEBUG_SIGS_GTKWAVE\.\/fpga_pins\.\/fpga\.P_kyad_twh\.\/\/\/\@0\$cnt\[1\]
*80 DEBUG_SIGS_GTKWAVE\.\/fpga_pins\.\/fpga\.P_kyad_twh\.\/\/\/\@0\$cnt\[20\]
*81 DEBUG_SIGS_GTKWAVE\.\/fpga_pins\.\/fpga\.P_kyad_twh\.\/\/\/\@0\$cnt\[21\]
*82 DEBUG_SIGS_GTKWAVE\.\/fpga_pins\.\/fpga\.P_kyad_twh\.\/\/\/\@0\$cnt\[22\]
*83 DEBUG_SIGS_GTKWAVE\.\/fpga_pins\.\/fpga\.P_kyad_twh\.\/\/\/\@0\$cnt\[23\]
*84 DEBUG_SIGS_GTKWAVE\.\/fpga_pins\.\/fpga\.P_kyad_twh\.\/\/\/\@0\$cnt\[24\]
*85 DEBUG_SIGS_GTKWAVE\.\/fpga_pins\.\/fpga\.P_kyad_twh\.\/\/\/\@0\$cnt\[25\]
*86 DEBUG_SIGS_GTKWAVE\.\/fpga_pins\.\/fpga\.P_kyad_twh\.\/\/\/\@0\$cnt\[26\]
*87 DEBUG_SIGS_GTKWAVE\.\/fpga_pins\.\/fpga\.P_kyad_twh\.\/\/\/\@0\$cnt\[27\]
*88 DEBUG_SIGS_GTKWAVE\.\/fpga_pins\.\/fpga\.P_kyad_twh\.\/\/\/\@0\$cnt\[28\]
*89 DEBUG_SIGS_GTKWAVE\.\/fpga_pins\.\/fpga\.P_kyad_twh\.\/\/\/\@0\$cnt\[29\]
*90 DEBUG_SIGS_GTKWAVE\.\/fpga_pins\.\/fpga\.P_kyad_twh\.\/\/\/\@0\$cnt\[2\]
*91 DEBUG_SIGS_GTKWAVE\.\/fpga_pins\.\/fpga\.P_kyad_twh\.\/\/\/\@0\$cnt\[30\]
*92 DEBUG_SIGS_GTKWAVE\.\/fpga_pins\.\/fpga\.P_kyad_twh\.\/\/\/\@0\$cnt\[31\]
*93 DEBUG_SIGS_GTKWAVE\.\/fpga_pins\.\/fpga\.P_kyad_twh\.\/\/\/\@0\$cnt\[3\]
*94 DEBUG_SIGS_GTKWAVE\.\/fpga_pins\.\/fpga\.P_kyad_twh\.\/\/\/\@0\$cnt\[4\]
*95 DEBUG_SIGS_GTKWAVE\.\/fpga_pins\.\/fpga\.P_kyad_twh\.\/\/\/\@0\$cnt\[5\]
*96 DEBUG_SIGS_GTKWAVE\.\/fpga_pins\.\/fpga\.P_kyad_twh\.\/\/\/\@0\$cnt\[6\]
*97 DEBUG_SIGS_GTKWAVE\.\/fpga_pins\.\/fpga\.P_kyad_twh\.\/\/\/\@0\$cnt\[7\]
*98 DEBUG_SIGS_GTKWAVE\.\/fpga_pins\.\/fpga\.P_kyad_twh\.\/\/\/\@0\$cnt\[8\]
*99 DEBUG_SIGS_GTKWAVE\.\/fpga_pins\.\/fpga\.P_kyad_twh\.\/\/\/\@0\$cnt\[9\]
*100 DEBUG_SIGS_GTKWAVE\.\/fpga_pins\.\/fpga\.P_kyad_twh\.\/\/\/\@0\$digit\[0\]
*101 DEBUG_SIGS_GTKWAVE\.\/fpga_pins\.\/fpga\.P_kyad_twh\.\/\/\/\@0\$digit\[1\]
*102 DEBUG_SIGS_GTKWAVE\.\/fpga_pins\.\/fpga\.P_kyad_twh\.\/\/\/\@0\$digit\[2\]
*103 DEBUG_SIGS_GTKWAVE\.\/fpga_pins\.\/fpga\.P_kyad_twh\.\/\/\/\@0\$digit\[3\]
*104 DEBUG_SIGS_GTKWAVE\.\/fpga_pins\.\/fpga\.P_kyad_twh\.\/\/\/\@0\$inp_digit\[0\]
*105 DEBUG_SIGS_GTKWAVE\.\/fpga_pins\.\/fpga\.P_kyad_twh\.\/\/\/\@0\$inp_digit\[1\]
*106 DEBUG_SIGS_GTKWAVE\.\/fpga_pins\.\/fpga\.P_kyad_twh\.\/\/\/\@0\$inp_digit\[2\]
*107 DEBUG_SIGS_GTKWAVE\.\/fpga_pins\.\/fpga\.P_kyad_twh\.\/\/\/\@0\$inp_digit\[3\]
*108 DEBUG_SIGS_GTKWAVE\.\/fpga_pins\.\/fpga\.P_kyad_twh\.\/\/\/\@0\$num\[0\]
*109 DEBUG_SIGS_GTKWAVE\.\/fpga_pins\.\/fpga\.P_kyad_twh\.\/\/\/\@0\$num\[10\]
*110 DEBUG_SIGS_GTKWAVE\.\/fpga_pins\.\/fpga\.P_kyad_twh\.\/\/\/\@0\$num\[11\]
*111 DEBUG_SIGS_GTKWAVE\.\/fpga_pins\.\/fpga\.P_kyad_twh\.\/\/\/\@0\$num\[12\]
*112 DEBUG_SIGS_GTKWAVE\.\/fpga_pins\.\/fpga\.P_kyad_twh\.\/\/\/\@0\$num\[13\]
*113 DEBUG_SIGS_GTKWAVE\.\/fpga_pins\.\/fpga\.P_kyad_twh\.\/\/\/\@0\$num\[14\]
*114 DEBUG_SIGS_GTKWAVE\.\/fpga_pins\.\/fpga\.P_kyad_twh\.\/\/\/\@0\$num\[15\]
*115 DEBUG_SIGS_GTKWAVE\.\/fpga_pins\.\/fpga\.P_kyad_twh\.\/\/\/\@0\$num\[16\]
*116 DEBUG_SIGS_GTKWAVE\.\/fpga_pins\.\/fpga\.P_kyad_twh\.\/\/\/\@0\$num\[17\]
*117 DEBUG_SIGS_GTKWAVE\.\/fpga_pins\.\/fpga\.P_kyad_twh\.\/\/\/\@0\$num\[18\]
*118 DEBUG_SIGS_GTKWAVE\.\/fpga_pins\.\/fpga\.P_kyad_twh\.\/\/\/\@0\$num\[19\]
*119 DEBUG_SIGS_GTKWAVE\.\/fpga_pins\.\/fpga\.P_kyad_twh\.\/\/\/\@0\$num\[1\]
*120 DEBUG_SIGS_GTKWAVE\.\/fpga_pins\.\/fpga\.P_kyad_twh\.\/\/\/\@0\$num\[20\]
*121 DEBUG_SIGS_GTKWAVE\.\/fpga_pins\.\/fpga\.P_kyad_twh\.\/\/\/\@0\$num\[21\]
*122 DEBUG_SIGS_GTKWAVE\.\/fpga_pins\.\/fpga\.P_kyad_twh\.\/\/\/\@0\$num\[22\]
*123 DEBUG_SIGS_GTKWAVE\.\/fpga_pins\.\/fpga\.P_kyad_twh\.\/\/\/\@0\$num\[23\]
*124 DEBUG_SIGS_GTKWAVE\.\/fpga_pins\.\/fpga\.P_kyad_twh\.\/\/\/\@0\$num\[24\]
*125 DEBUG_SIGS_GTKWAVE\.\/fpga_pins\.\/fpga\.P_kyad_twh\.\/\/\/\@0\$num\[25\]
*126 DEBUG_SIGS_GTKWAVE\.\/fpga_pins\.\/fpga\.P_kyad_twh\.\/\/\/\@0\$num\[26\]
*127 DEBUG_SIGS_GTKWAVE\.\/fpga_pins\.\/fpga\.P_kyad_twh\.\/\/\/\@0\$num\[27\]
*128 DEBUG_SIGS_GTKWAVE\.\/fpga_pins\.\/fpga\.P_kyad_twh\.\/\/\/\@0\$num\[28\]
*129 DEBUG_SIGS_GTKWAVE\.\/fpga_pins\.\/fpga\.P_kyad_twh\.\/\/\/\@0\$num\[29\]
*130 DEBUG_SIGS_GTKWAVE\.\/fpga_pins\.\/fpga\.P_kyad_twh\.\/\/\/\@0\$num\[2\]
*131 DEBUG_SIGS_GTKWAVE\.\/fpga_pins\.\/fpga\.P_kyad_twh\.\/\/\/\@0\$num\[30\]
*132 DEBUG_SIGS_GTKWAVE\.\/fpga_pins\.\/fpga\.P_kyad_twh\.\/\/\/\@0\$num\[31\]
*133 DEBUG_SIGS_GTKWAVE\.\/fpga_pins\.\/fpga\.P_kyad_twh\.\/\/\/\@0\$num\[3\]
*134 DEBUG_SIGS_GTKWAVE\.\/fpga_pins\.\/fpga\.P_kyad_twh\.\/\/\/\@0\$num\[4\]
*135 DEBUG_SIGS_GTKWAVE\.\/fpga_pins\.\/fpga\.P_kyad_twh\.\/\/\/\@0\$num\[5\]
*136 DEBUG_SIGS_GTKWAVE\.\/fpga_pins\.\/fpga\.P_kyad_twh\.\/\/\/\@0\$num\[6\]
*137 DEBUG_SIGS_GTKWAVE\.\/fpga_pins\.\/fpga\.P_kyad_twh\.\/\/\/\@0\$num\[7\]
*138 DEBUG_SIGS_GTKWAVE\.\/fpga_pins\.\/fpga\.P_kyad_twh\.\/\/\/\@0\$num\[8\]
*139 DEBUG_SIGS_GTKWAVE\.\/fpga_pins\.\/fpga\.P_kyad_twh\.\/\/\/\@0\$num\[9\]
*140 DEBUG_SIGS_GTKWAVE\.\/fpga_pins\.\/fpga\.P_kyad_twh\.\/\/\/\@0\$out\[0\]
*141 DEBUG_SIGS_GTKWAVE\.\/fpga_pins\.\/fpga\.P_kyad_twh\.\/\/\/\@0\$out\[1\]
*142 DEBUG_SIGS_GTKWAVE\.\/fpga_pins\.\/fpga\.P_kyad_twh\.\/\/\/\@0\$out\[2\]
*143 DEBUG_SIGS_GTKWAVE\.\/fpga_pins\.\/fpga\.P_kyad_twh\.\/\/\/\@0\$out\[3\]
*144 DEBUG_SIGS_GTKWAVE\.\/fpga_pins\.\/fpga\.P_kyad_twh\.\/\/\/\@0\$reset
*145 DEBUG_SIGS_GTKWAVE\.\/switch\[0\]\.\/\@0\$viz_switch
*146 DEBUG_SIGS_GTKWAVE\.\/switch\[1\]\.\/\@0\$viz_switch
*147 DEBUG_SIGS_GTKWAVE\.\/switch\[2\]\.\/\@0\$viz_switch
*148 DEBUG_SIGS_GTKWAVE\.\/switch\[3\]\.\/\@0\$viz_switch
*149 DEBUG_SIGS_GTKWAVE\.\/switch\[4\]\.\/\@0\$viz_switch
*150 DEBUG_SIGS_GTKWAVE\.\/switch\[5\]\.\/\@0\$viz_switch
*151 DEBUG_SIGS_GTKWAVE\.\/switch\[6\]\.\/\@0\$viz_switch
*152 DEBUG_SIGS_GTKWAVE\.\/switch\[7\]\.\/\@0\$viz_switch
*153 FpgaPins_Fpga_KYAD_TWH_cnt_a1\[0\]
*154 FpgaPins_Fpga_KYAD_TWH_cnt_a1\[10\]
*155 FpgaPins_Fpga_KYAD_TWH_cnt_a1\[11\]
*156 FpgaPins_Fpga_KYAD_TWH_cnt_a1\[12\]
*157 FpgaPins_Fpga_KYAD_TWH_cnt_a1\[13\]
*158 FpgaPins_Fpga_KYAD_TWH_cnt_a1\[14\]
*159 FpgaPins_Fpga_KYAD_TWH_cnt_a1\[15\]
*160 FpgaPins_Fpga_KYAD_TWH_cnt_a1\[16\]
*161 FpgaPins_Fpga_KYAD_TWH_cnt_a1\[17\]
*162 FpgaPins_Fpga_KYAD_TWH_cnt_a1\[18\]
*163 FpgaPins_Fpga_KYAD_TWH_cnt_a1\[19\]
*164 FpgaPins_Fpga_KYAD_TWH_cnt_a1\[1\]
*165 FpgaPins_Fpga_KYAD_TWH_cnt_a1\[20\]
*166 FpgaPins_Fpga_KYAD_TWH_cnt_a1\[21\]
*167 FpgaPins_Fpga_KYAD_TWH_cnt_a1\[22\]
*168 FpgaPins_Fpga_KYAD_TWH_cnt_a1\[23\]
*169 FpgaPins_Fpga_KYAD_TWH_cnt_a1\[24\]
*170 FpgaPins_Fpga_KYAD_TWH_cnt_a1\[25\]
*171 FpgaPins_Fpga_KYAD_TWH_cnt_a1\[26\]
*172 FpgaPins_Fpga_KYAD_TWH_cnt_a1\[27\]
*173 FpgaPins_Fpga_KYAD_TWH_cnt_a1\[28\]
*174 FpgaPins_Fpga_KYAD_TWH_cnt_a1\[29\]
*175 FpgaPins_Fpga_KYAD_TWH_cnt_a1\[2\]
*176 FpgaPins_Fpga_KYAD_TWH_cnt_a1\[30\]
*177 FpgaPins_Fpga_KYAD_TWH_cnt_a1\[31\]
*178 FpgaPins_Fpga_KYAD_TWH_cnt_a1\[3\]
*179 FpgaPins_Fpga_KYAD_TWH_cnt_a1\[4\]
*180 FpgaPins_Fpga_KYAD_TWH_cnt_a1\[5\]
*181 FpgaPins_Fpga_KYAD_TWH_cnt_a1\[6\]
*182 FpgaPins_Fpga_KYAD_TWH_cnt_a1\[7\]
*183 FpgaPins_Fpga_KYAD_TWH_cnt_a1\[8\]
*184 FpgaPins_Fpga_KYAD_TWH_cnt_a1\[9\]
*185 FpgaPins_Fpga_KYAD_TWH_num_a1\[0\]
*186 FpgaPins_Fpga_KYAD_TWH_num_a1\[10\]
*187 FpgaPins_Fpga_KYAD_TWH_num_a1\[11\]
*188 FpgaPins_Fpga_KYAD_TWH_num_a1\[12\]
*189 FpgaPins_Fpga_KYAD_TWH_num_a1\[13\]
*190 FpgaPins_Fpga_KYAD_TWH_num_a1\[14\]
*191 FpgaPins_Fpga_KYAD_TWH_num_a1\[15\]
*192 FpgaPins_Fpga_KYAD_TWH_num_a1\[16\]
*193 FpgaPins_Fpga_KYAD_TWH_num_a1\[17\]
*194 FpgaPins_Fpga_KYAD_TWH_num_a1\[18\]
*195 FpgaPins_Fpga_KYAD_TWH_num_a1\[19\]
*196 FpgaPins_Fpga_KYAD_TWH_num_a1\[1\]
*197 FpgaPins_Fpga_KYAD_TWH_num_a1\[20\]
*198 FpgaPins_Fpga_KYAD_TWH_num_a1\[21\]
*199 FpgaPins_Fpga_KYAD_TWH_num_a1\[22\]
*200 FpgaPins_Fpga_KYAD_TWH_num_a1\[23\]
*201 FpgaPins_Fpga_KYAD_TWH_num_a1\[24\]
*202 FpgaPins_Fpga_KYAD_TWH_num_a1\[25\]
*203 FpgaPins_Fpga_KYAD_TWH_num_a1\[26\]
*204 FpgaPins_Fpga_KYAD_TWH_num_a1\[27\]
*205 FpgaPins_Fpga_KYAD_TWH_num_a1\[28\]
*206 FpgaPins_Fpga_KYAD_TWH_num_a1\[29\]
*207 FpgaPins_Fpga_KYAD_TWH_num_a1\[2\]
*208 FpgaPins_Fpga_KYAD_TWH_num_a1\[30\]
*209 FpgaPins_Fpga_KYAD_TWH_num_a1\[31\]
*210 FpgaPins_Fpga_KYAD_TWH_num_a1\[3\]
*211 FpgaPins_Fpga_KYAD_TWH_num_a1\[4\]
*212 FpgaPins_Fpga_KYAD_TWH_num_a1\[5\]
*213 FpgaPins_Fpga_KYAD_TWH_num_a1\[6\]
*214 FpgaPins_Fpga_KYAD_TWH_num_a1\[7\]
*215 FpgaPins_Fpga_KYAD_TWH_num_a1\[8\]
*216 FpgaPins_Fpga_KYAD_TWH_num_a1\[9\]
*217 FpgaPins_Fpga_KYAD_TWH_num_a2\[0\]
*218 FpgaPins_Fpga_KYAD_TWH_num_a2\[10\]
*219 FpgaPins_Fpga_KYAD_TWH_num_a2\[11\]
*220 FpgaPins_Fpga_KYAD_TWH_num_a2\[12\]
*221 FpgaPins_Fpga_KYAD_TWH_num_a2\[13\]
*222 FpgaPins_Fpga_KYAD_TWH_num_a2\[14\]
*223 FpgaPins_Fpga_KYAD_TWH_num_a2\[15\]
*224 FpgaPins_Fpga_KYAD_TWH_num_a2\[16\]
*225 FpgaPins_Fpga_KYAD_TWH_num_a2\[17\]
*226 FpgaPins_Fpga_KYAD_TWH_num_a2\[18\]
*227 FpgaPins_Fpga_KYAD_TWH_num_a2\[19\]
*228 FpgaPins_Fpga_KYAD_TWH_num_a2\[1\]
*229 FpgaPins_Fpga_KYAD_TWH_num_a2\[20\]
*230 FpgaPins_Fpga_KYAD_TWH_num_a2\[21\]
*231 FpgaPins_Fpga_KYAD_TWH_num_a2\[22\]
*232 FpgaPins_Fpga_KYAD_TWH_num_a2\[23\]
*233 FpgaPins_Fpga_KYAD_TWH_num_a2\[24\]
*234 FpgaPins_Fpga_KYAD_TWH_num_a2\[25\]
*235 FpgaPins_Fpga_KYAD_TWH_num_a2\[26\]
*236 FpgaPins_Fpga_KYAD_TWH_num_a2\[27\]
*237 FpgaPins_Fpga_KYAD_TWH_num_a2\[28\]
*238 FpgaPins_Fpga_KYAD_TWH_num_a2\[29\]
*239 FpgaPins_Fpga_KYAD_TWH_num_a2\[2\]
*240 FpgaPins_Fpga_KYAD_TWH_num_a2\[30\]
*241 FpgaPins_Fpga_KYAD_TWH_num_a2\[31\]
*242 FpgaPins_Fpga_KYAD_TWH_num_a2\[3\]
*243 FpgaPins_Fpga_KYAD_TWH_num_a2\[4\]
*244 FpgaPins_Fpga_KYAD_TWH_num_a2\[5\]
*245 FpgaPins_Fpga_KYAD_TWH_num_a2\[6\]
*246 FpgaPins_Fpga_KYAD_TWH_num_a2\[7\]
*247 FpgaPins_Fpga_KYAD_TWH_num_a2\[8\]
*248 FpgaPins_Fpga_KYAD_TWH_num_a2\[9\]
*249 _0000_
*250 _0001_
*251 _0002_
*252 _0003_
*253 _0004_
*254 _0005_
*255 _0006_
*256 _0007_
*257 _0008_
*258 _0009_
*259 _0010_
*260 _0011_
*261 _0012_
*262 _0013_
*263 _0014_
*264 _0015_
*265 _0016_
*266 _0017_
*267 _0018_
*268 _0019_
*269 _0020_
*270 _0021_
*271 _0022_
*272 _0023_
*273 _0024_
*274 _0025_
*275 _0026_
*276 _0027_
*277 _0028_
*278 _0029_
*279 _0030_
*280 _0031_
*281 _0032_
*282 _0033_
*283 _0034_
*284 _0035_
*285 _0036_
*286 _0037_
*287 _0038_
*288 _0039_
*289 _0040_
*290 _0041_
*291 _0042_
*292 _0043_
*293 _0044_
*294 _0045_
*295 _0046_
*296 _0047_
*297 _0048_
*298 _0049_
*299 _0050_
*300 _0051_
*301 _0052_
*302 _0053_
*303 _0054_
*304 _0055_
*305 _0056_
*306 _0057_
*307 _0058_
*308 _0059_
*309 _0060_
*310 _0061_
*311 _0062_
*312 _0063_
*313 _0064_
*314 _0065_
*315 _0066_
*316 _0067_
*317 _0068_
*318 _0069_
*319 _0070_
*320 _0071_
*321 _0072_
*322 _0073_
*323 _0074_
*324 _0075_
*325 _0076_
*326 _0077_
*327 _0078_
*328 _0079_
*329 _0080_
*330 _0081_
*331 _0082_
*332 _0083_
*333 _0084_
*334 _0085_
*335 _0086_
*336 _0087_
*337 _0088_
*338 _0089_
*339 _0090_
*340 _0091_
*341 _0092_
*342 _0093_
*343 _0094_
*344 _0095_
*345 _0096_
*346 _0097_
*347 _0098_
*348 _0099_
*349 _0100_
*350 _0101_
*351 _0102_
*352 _0103_
*353 _0104_
*354 _0105_
*355 _0106_
*356 _0107_
*357 _0108_
*358 _0109_
*359 _0110_
*360 _0111_
*361 _0112_
*362 _0113_
*363 _0114_
*364 _0115_
*365 _0116_
*366 _0117_
*367 _0118_
*368 _0119_
*369 _0120_
*370 _0121_
*371 _0122_
*372 _0123_
*373 _0124_
*374 _0125_
*375 _0126_
*376 _0127_
*377 _0128_
*378 _0129_
*379 _0130_
*380 _0131_
*381 _0132_
*382 _0133_
*383 _0134_
*384 _0135_
*385 _0136_
*386 _0137_
*387 _0138_
*388 _0139_
*389 _0140_
*390 _0141_
*391 _0142_
*392 _0143_
*393 _0144_
*394 _0145_
*395 _0146_
*396 _0147_
*397 _0148_
*398 _0149_
*399 _0150_
*400 _0151_
*401 _0152_
*402 _0153_
*403 _0154_
*404 _0155_
*405 _0156_
*406 _0157_
*407 _0158_
*408 _0159_
*409 _0160_
*410 _0161_
*411 _0162_
*412 _0163_
*413 _0164_
*414 _0165_
*415 _0166_
*416 _0167_
*417 _0168_
*418 _0169_
*419 _0170_
*420 _0171_
*421 _0172_
*422 _0173_
*423 _0174_
*424 _0175_
*425 _0176_
*426 _0177_
*427 _0178_
*428 _0179_
*429 _0180_
*430 _0181_
*431 _0182_
*432 _0183_
*433 _0184_
*434 _0185_
*435 _0186_
*436 _0187_
*437 _0188_
*438 _0189_
*439 _0190_
*440 _0191_
*441 _0192_
*442 _0193_
*443 _0194_
*444 _0195_
*445 _0196_
*446 _0197_
*447 _0198_
*448 _0199_
*449 _0200_
*450 _0201_
*451 _0202_
*452 _0203_
*453 _0204_
*454 _0205_
*455 _0206_
*456 _0207_
*457 _0208_
*458 _0209_
*459 _0210_
*460 _0211_
*461 _0212_
*462 _0213_
*463 _0214_
*464 _0215_
*465 _0216_
*466 _0217_
*467 _0218_
*468 _0219_
*469 _0220_
*470 _0221_
*471 _0222_
*472 _0223_
*473 _0224_
*474 _0225_
*475 _0226_
*476 _0227_
*477 _0228_
*478 _0229_
*479 _0230_
*480 _0231_
*481 _0232_
*482 _0233_
*483 _0234_
*484 _0235_
*485 _0236_
*486 _0237_
*487 _0238_
*488 _0239_
*489 _0240_
*490 _0241_
*491 _0242_
*492 _0243_
*493 _0244_
*494 _0245_
*495 _0246_
*496 _0247_
*497 _0248_
*498 _0249_
*499 _0250_
*500 _0251_
*501 _0252_
*502 _0253_
*503 _0254_
*504 _0255_
*505 _0256_
*506 _0257_
*507 _0258_
*508 _0259_
*509 _0260_
*510 _0261_
*511 _0262_
*512 _0263_
*513 _0264_
*514 _0265_
*515 _0266_
*516 _0267_
*517 _0268_
*518 _0269_
*519 _0270_
*520 _0271_
*521 _0272_
*522 _0273_
*523 _0274_
*524 _0275_
*525 _0276_
*526 _0277_
*527 _0278_
*528 _0279_
*529 _0280_
*530 _0281_
*531 _0282_
*532 _0283_
*533 _0284_
*534 _0285_
*535 _0286_
*536 _0287_
*537 _0288_
*538 _0289_
*539 _0290_
*540 _0291_
*541 _0292_
*542 _0293_
*543 _0294_
*544 _0295_
*545 _0296_
*546 _0297_
*547 _0298_
*548 _0299_
*549 _0300_
*550 _0301_
*551 _0302_
*552 _0303_
*553 _0304_
*554 _0305_
*555 _0306_
*556 _0307_
*557 _0308_
*558 _0309_
*559 _0310_
*560 _0311_
*561 _0312_
*562 _0313_
*563 _0314_
*564 _0315_
*565 _0316_
*566 _0317_
*567 _0318_
*568 _0319_
*569 _0320_
*570 _0321_
*571 _0322_
*572 _0323_
*573 _0324_
*574 _0325_
*575 _0326_
*576 _0327_
*577 _0328_
*578 _0329_
*579 _0330_
*580 _0331_
*581 _0332_
*582 _0333_
*583 _0334_
*584 _0335_
*585 _0336_
*586 _0337_
*587 _0338_
*588 _0339_
*589 _0340_
*590 _0341_
*591 _0342_
*592 _0343_
*593 _0344_
*594 _0345_
*595 _0346_
*596 _0347_
*597 _0348_
*598 _0349_
*599 _0350_
*600 _0351_
*601 _0352_
*602 _0353_
*603 _0354_
*604 _0355_
*605 _0356_
*606 _0357_
*607 _0358_
*608 _0359_
*609 _0360_
*610 _0361_
*611 _0362_
*612 _0363_
*613 _0364_
*614 _0365_
*615 _0366_
*616 _0367_
*617 _0368_
*618 _0369_
*619 _0370_
*620 _0371_
*621 _0372_
*622 _0373_
*623 _0374_
*624 _0375_
*625 _0376_
*626 _0377_
*627 _0378_
*628 _0379_
*629 _0380_
*630 _0381_
*631 _0382_
*632 _0383_
*633 _0384_
*634 _0385_
*635 _0386_
*636 _0387_
*637 _0388_
*638 _0389_
*639 _0390_
*640 _0391_
*641 _0392_
*642 _0393_
*643 _0394_
*644 _0395_
*645 _0396_
*646 _0397_
*647 _0398_
*648 _0399_
*649 _0400_
*650 _0401_
*651 _0402_
*652 _0403_
*653 _0404_
*654 _0405_
*655 _0406_
*656 _0407_
*657 _0408_
*658 _0409_
*659 _0410_
*660 _0411_
*661 _0412_
*662 _0413_
*663 _0414_
*664 _0415_
*665 _0416_
*666 _0417_
*667 _0418_
*668 _0419_
*669 _0420_
*670 clknet_0_clk
*671 clknet_3_0__leaf_clk
*672 clknet_3_1__leaf_clk
*673 clknet_3_2__leaf_clk
*674 clknet_3_3__leaf_clk
*675 clknet_3_4__leaf_clk
*676 clknet_3_5__leaf_clk
*677 clknet_3_6__leaf_clk
*678 clknet_3_7__leaf_clk
*679 net1
*680 net2
*681 net27
*682 net28
*683 net29
*684 net3
*685 net30
*686 net31
*687 net32
*688 net33
*689 net34
*690 net35
*691 net36
*692 net37
*693 net38
*694 net39
*695 net4
*696 net40
*697 net41
*698 net42
*699 net43
*700 net44
*701 net45
*702 net46
*703 net47
*704 net48
*705 net49
*706 net5
*707 net50
*708 net51
*709 net52
*710 net53
*711 net54
*712 net55
*713 net56
*714 net57
*715 net58
*716 net59
*717 net6
*718 net60
*719 net61
*720 net62
*721 net63
*722 net64
*723 net65
*724 net66
*725 net67
*726 net68
*727 net69
*728 net7
*729 net70
*730 net71
*731 net72
*732 net73
*733 net74
*734 net75
*735 net76
*736 net77
*737 net78
*738 net79
*739 net8
*740 net9
*741 FILLER_0_0_109
*742 FILLER_0_0_113
*743 FILLER_0_0_125
*744 FILLER_0_0_137
*745 FILLER_0_0_141
*746 FILLER_0_0_15
*747 FILLER_0_0_153
*748 FILLER_0_0_165
*749 FILLER_0_0_169
*750 FILLER_0_0_181
*751 FILLER_0_0_193
*752 FILLER_0_0_197
*753 FILLER_0_0_209
*754 FILLER_0_0_221
*755 FILLER_0_0_225
*756 FILLER_0_0_237
*757 FILLER_0_0_249
*758 FILLER_0_0_253
*759 FILLER_0_0_265
*760 FILLER_0_0_27
*761 FILLER_0_0_277
*762 FILLER_0_0_281
*763 FILLER_0_0_29
*764 FILLER_0_0_293
*765 FILLER_0_0_3
*766 FILLER_0_0_305
*767 FILLER_0_0_309
*768 FILLER_0_0_321
*769 FILLER_0_0_333
*770 FILLER_0_0_41
*771 FILLER_0_0_53
*772 FILLER_0_0_57
*773 FILLER_0_0_69
*774 FILLER_0_0_81
*775 FILLER_0_0_85
*776 FILLER_0_0_97
*777 FILLER_0_10_109
*778 FILLER_0_10_117
*779 FILLER_0_10_121
*780 FILLER_0_10_132
*781 FILLER_0_10_145
*782 FILLER_0_10_15
*783 FILLER_0_10_153
*784 FILLER_0_10_170
*785 FILLER_0_10_176
*786 FILLER_0_10_195
*787 FILLER_0_10_197
*788 FILLER_0_10_209
*789 FILLER_0_10_221
*790 FILLER_0_10_233
*791 FILLER_0_10_248
*792 FILLER_0_10_253
*793 FILLER_0_10_27
*794 FILLER_0_10_272
*795 FILLER_0_10_281
*796 FILLER_0_10_285
*797 FILLER_0_10_29
*798 FILLER_0_10_294
*799 FILLER_0_10_3
*800 FILLER_0_10_302
*801 FILLER_0_10_309
*802 FILLER_0_10_321
*803 FILLER_0_10_332
*804 FILLER_0_10_41
*805 FILLER_0_10_53
*806 FILLER_0_10_65
*807 FILLER_0_10_77
*808 FILLER_0_10_83
*809 FILLER_0_10_85
*810 FILLER_0_10_97
*811 FILLER_0_11_105
*812 FILLER_0_11_111
*813 FILLER_0_11_113
*814 FILLER_0_11_135
*815 FILLER_0_11_15
*816 FILLER_0_11_151
*817 FILLER_0_11_163
*818 FILLER_0_11_167
*819 FILLER_0_11_169
*820 FILLER_0_11_186
*821 FILLER_0_11_194
*822 FILLER_0_11_214
*823 FILLER_0_11_250
*824 FILLER_0_11_267
*825 FILLER_0_11_27
*826 FILLER_0_11_279
*827 FILLER_0_11_281
*828 FILLER_0_11_3
*829 FILLER_0_11_301
*830 FILLER_0_11_313
*831 FILLER_0_11_333
*832 FILLER_0_11_39
*833 FILLER_0_11_51
*834 FILLER_0_11_55
*835 FILLER_0_11_57
*836 FILLER_0_11_69
*837 FILLER_0_11_81
*838 FILLER_0_11_93
*839 FILLER_0_12_109
*840 FILLER_0_12_121
*841 FILLER_0_12_127
*842 FILLER_0_12_139
*843 FILLER_0_12_141
*844 FILLER_0_12_148
*845 FILLER_0_12_15
*846 FILLER_0_12_165
*847 FILLER_0_12_174
*848 FILLER_0_12_186
*849 FILLER_0_12_194
*850 FILLER_0_12_197
*851 FILLER_0_12_205
*852 FILLER_0_12_222
*853 FILLER_0_12_226
*854 FILLER_0_12_238
*855 FILLER_0_12_248
*856 FILLER_0_12_253
*857 FILLER_0_12_27
*858 FILLER_0_12_284
*859 FILLER_0_12_29
*860 FILLER_0_12_3
*861 FILLER_0_12_300
*862 FILLER_0_12_309
*863 FILLER_0_12_329
*864 FILLER_0_12_41
*865 FILLER_0_12_53
*866 FILLER_0_12_65
*867 FILLER_0_12_77
*868 FILLER_0_12_83
*869 FILLER_0_12_85
*870 FILLER_0_12_97
*871 FILLER_0_13_105
*872 FILLER_0_13_111
*873 FILLER_0_13_113
*874 FILLER_0_13_15
*875 FILLER_0_13_162
*876 FILLER_0_13_205
*877 FILLER_0_13_209
*878 FILLER_0_13_221
*879 FILLER_0_13_241
*880 FILLER_0_13_247
*881 FILLER_0_13_255
*882 FILLER_0_13_269
*883 FILLER_0_13_27
*884 FILLER_0_13_277
*885 FILLER_0_13_281
*886 FILLER_0_13_3
*887 FILLER_0_13_317
*888 FILLER_0_13_39
*889 FILLER_0_13_51
*890 FILLER_0_13_55
*891 FILLER_0_13_57
*892 FILLER_0_13_69
*893 FILLER_0_13_81
*894 FILLER_0_13_93
*895 FILLER_0_14_100
*896 FILLER_0_14_128
*897 FILLER_0_14_139
*898 FILLER_0_14_141
*899 FILLER_0_14_145
*900 FILLER_0_14_15
*901 FILLER_0_14_195
*902 FILLER_0_14_204
*903 FILLER_0_14_221
*904 FILLER_0_14_233
*905 FILLER_0_14_241
*906 FILLER_0_14_250
*907 FILLER_0_14_266
*908 FILLER_0_14_27
*909 FILLER_0_14_284
*910 FILLER_0_14_29
*911 FILLER_0_14_3
*912 FILLER_0_14_302
*913 FILLER_0_14_309
*914 FILLER_0_14_317
*915 FILLER_0_14_323
*916 FILLER_0_14_41
*917 FILLER_0_14_53
*918 FILLER_0_14_65
*919 FILLER_0_14_77
*920 FILLER_0_14_83
*921 FILLER_0_14_88
*922 FILLER_0_15_105
*923 FILLER_0_15_109
*924 FILLER_0_15_113
*925 FILLER_0_15_121
*926 FILLER_0_15_142
*927 FILLER_0_15_15
*928 FILLER_0_15_156
*929 FILLER_0_15_185
*930 FILLER_0_15_192
*931 FILLER_0_15_200
*932 FILLER_0_15_208
*933 FILLER_0_15_212
*934 FILLER_0_15_27
*935 FILLER_0_15_271
*936 FILLER_0_15_279
*937 FILLER_0_15_3
*938 FILLER_0_15_39
*939 FILLER_0_15_51
*940 FILLER_0_15_55
*941 FILLER_0_15_57
*942 FILLER_0_15_69
*943 FILLER_0_15_97
*944 FILLER_0_16_117
*945 FILLER_0_16_125
*946 FILLER_0_16_132
*947 FILLER_0_16_141
*948 FILLER_0_16_147
*949 FILLER_0_16_15
*950 FILLER_0_16_151
*951 FILLER_0_16_156
*952 FILLER_0_16_168
*953 FILLER_0_16_186
*954 FILLER_0_16_194
*955 FILLER_0_16_197
*956 FILLER_0_16_202
*957 FILLER_0_16_227
*958 FILLER_0_16_235
*959 FILLER_0_16_253
*960 FILLER_0_16_265
*961 FILLER_0_16_269
*962 FILLER_0_16_27
*963 FILLER_0_16_281
*964 FILLER_0_16_29
*965 FILLER_0_16_3
*966 FILLER_0_16_306
*967 FILLER_0_16_309
*968 FILLER_0_16_315
*969 FILLER_0_16_327
*970 FILLER_0_16_41
*971 FILLER_0_16_53
*972 FILLER_0_16_65
*973 FILLER_0_16_77
*974 FILLER_0_16_83
*975 FILLER_0_16_85
*976 FILLER_0_17_109
*977 FILLER_0_17_113
*978 FILLER_0_17_120
*979 FILLER_0_17_124
*980 FILLER_0_17_135
*981 FILLER_0_17_143
*982 FILLER_0_17_15
*983 FILLER_0_17_160
*984 FILLER_0_17_204
*985 FILLER_0_17_216
*986 FILLER_0_17_240
*987 FILLER_0_17_244
*988 FILLER_0_17_261
*989 FILLER_0_17_27
*990 FILLER_0_17_284
*991 FILLER_0_17_290
*992 FILLER_0_17_3
*993 FILLER_0_17_302
*994 FILLER_0_17_306
*995 FILLER_0_17_323
*996 FILLER_0_17_39
*997 FILLER_0_17_51
*998 FILLER_0_17_55
*999 FILLER_0_17_57
*1000 FILLER_0_17_69
*1001 FILLER_0_17_73
*1002 FILLER_0_17_81
*1003 FILLER_0_17_92
*1004 FILLER_0_18_112
*1005 FILLER_0_18_124
*1006 FILLER_0_18_141
*1007 FILLER_0_18_15
*1008 FILLER_0_18_153
*1009 FILLER_0_18_165
*1010 FILLER_0_18_178
*1011 FILLER_0_18_186
*1012 FILLER_0_18_207
*1013 FILLER_0_18_216
*1014 FILLER_0_18_229
*1015 FILLER_0_18_247
*1016 FILLER_0_18_253
*1017 FILLER_0_18_259
*1018 FILLER_0_18_27
*1019 FILLER_0_18_270
*1020 FILLER_0_18_282
*1021 FILLER_0_18_288
*1022 FILLER_0_18_29
*1023 FILLER_0_18_292
*1024 FILLER_0_18_3
*1025 FILLER_0_18_303
*1026 FILLER_0_18_307
*1027 FILLER_0_18_333
*1028 FILLER_0_18_41
*1029 FILLER_0_18_53
*1030 FILLER_0_18_81
*1031 FILLER_0_19_101
*1032 FILLER_0_19_109
*1033 FILLER_0_19_113
*1034 FILLER_0_19_119
*1035 FILLER_0_19_130
*1036 FILLER_0_19_142
*1037 FILLER_0_19_15
*1038 FILLER_0_19_160
*1039 FILLER_0_19_185
*1040 FILLER_0_19_205
*1041 FILLER_0_19_213
*1042 FILLER_0_19_220
*1043 FILLER_0_19_225
*1044 FILLER_0_19_237
*1045 FILLER_0_19_254
*1046 FILLER_0_19_27
*1047 FILLER_0_19_284
*1048 FILLER_0_19_292
*1049 FILLER_0_19_296
*1050 FILLER_0_19_3
*1051 FILLER_0_19_300
*1052 FILLER_0_19_307
*1053 FILLER_0_19_319
*1054 FILLER_0_19_331
*1055 FILLER_0_19_39
*1056 FILLER_0_19_51
*1057 FILLER_0_19_55
*1058 FILLER_0_19_57
*1059 FILLER_0_19_69
*1060 FILLER_0_19_80
*1061 FILLER_0_19_92
*1062 FILLER_0_1_105
*1063 FILLER_0_1_111
*1064 FILLER_0_1_113
*1065 FILLER_0_1_125
*1066 FILLER_0_1_137
*1067 FILLER_0_1_149
*1068 FILLER_0_1_15
*1069 FILLER_0_1_161
*1070 FILLER_0_1_167
*1071 FILLER_0_1_169
*1072 FILLER_0_1_181
*1073 FILLER_0_1_193
*1074 FILLER_0_1_205
*1075 FILLER_0_1_217
*1076 FILLER_0_1_223
*1077 FILLER_0_1_225
*1078 FILLER_0_1_237
*1079 FILLER_0_1_249
*1080 FILLER_0_1_261
*1081 FILLER_0_1_27
*1082 FILLER_0_1_273
*1083 FILLER_0_1_279
*1084 FILLER_0_1_281
*1085 FILLER_0_1_293
*1086 FILLER_0_1_3
*1087 FILLER_0_1_305
*1088 FILLER_0_1_317
*1089 FILLER_0_1_329
*1090 FILLER_0_1_39
*1091 FILLER_0_1_51
*1092 FILLER_0_1_55
*1093 FILLER_0_1_57
*1094 FILLER_0_1_69
*1095 FILLER_0_1_81
*1096 FILLER_0_1_93
*1097 FILLER_0_20_104
*1098 FILLER_0_20_110
*1099 FILLER_0_20_117
*1100 FILLER_0_20_130
*1101 FILLER_0_20_134
*1102 FILLER_0_20_141
*1103 FILLER_0_20_15
*1104 FILLER_0_20_158
*1105 FILLER_0_20_174
*1106 FILLER_0_20_181
*1107 FILLER_0_20_189
*1108 FILLER_0_20_195
*1109 FILLER_0_20_197
*1110 FILLER_0_20_244
*1111 FILLER_0_20_249
*1112 FILLER_0_20_253
*1113 FILLER_0_20_261
*1114 FILLER_0_20_27
*1115 FILLER_0_20_271
*1116 FILLER_0_20_279
*1117 FILLER_0_20_289
*1118 FILLER_0_20_29
*1119 FILLER_0_20_3
*1120 FILLER_0_20_329
*1121 FILLER_0_20_41
*1122 FILLER_0_20_53
*1123 FILLER_0_20_82
*1124 FILLER_0_20_88
*1125 FILLER_0_21_101
*1126 FILLER_0_21_120
*1127 FILLER_0_21_131
*1128 FILLER_0_21_15
*1129 FILLER_0_21_150
*1130 FILLER_0_21_161
*1131 FILLER_0_21_167
*1132 FILLER_0_21_181
*1133 FILLER_0_21_194
*1134 FILLER_0_21_217
*1135 FILLER_0_21_223
*1136 FILLER_0_21_225
*1137 FILLER_0_21_233
*1138 FILLER_0_21_241
*1139 FILLER_0_21_263
*1140 FILLER_0_21_27
*1141 FILLER_0_21_281
*1142 FILLER_0_21_293
*1143 FILLER_0_21_3
*1144 FILLER_0_21_305
*1145 FILLER_0_21_309
*1146 FILLER_0_21_322
*1147 FILLER_0_21_334
*1148 FILLER_0_21_39
*1149 FILLER_0_21_51
*1150 FILLER_0_21_55
*1151 FILLER_0_21_57
*1152 FILLER_0_21_71
*1153 FILLER_0_21_75
*1154 FILLER_0_21_79
*1155 FILLER_0_21_91
*1156 FILLER_0_22_113
*1157 FILLER_0_22_139
*1158 FILLER_0_22_15
*1159 FILLER_0_22_163
*1160 FILLER_0_22_201
*1161 FILLER_0_22_214
*1162 FILLER_0_22_221
*1163 FILLER_0_22_235
*1164 FILLER_0_22_247
*1165 FILLER_0_22_251
*1166 FILLER_0_22_253
*1167 FILLER_0_22_265
*1168 FILLER_0_22_269
*1169 FILLER_0_22_27
*1170 FILLER_0_22_281
*1171 FILLER_0_22_29
*1172 FILLER_0_22_3
*1173 FILLER_0_22_306
*1174 FILLER_0_22_309
*1175 FILLER_0_22_328
*1176 FILLER_0_22_334
*1177 FILLER_0_22_41
*1178 FILLER_0_22_53
*1179 FILLER_0_22_61
*1180 FILLER_0_22_78
*1181 FILLER_0_22_85
*1182 FILLER_0_22_89
*1183 FILLER_0_23_107
*1184 FILLER_0_23_111
*1185 FILLER_0_23_113
*1186 FILLER_0_23_125
*1187 FILLER_0_23_137
*1188 FILLER_0_23_15
*1189 FILLER_0_23_156
*1190 FILLER_0_23_165
*1191 FILLER_0_23_169
*1192 FILLER_0_23_176
*1193 FILLER_0_23_181
*1194 FILLER_0_23_203
*1195 FILLER_0_23_219
*1196 FILLER_0_23_223
*1197 FILLER_0_23_225
*1198 FILLER_0_23_239
*1199 FILLER_0_23_252
*1200 FILLER_0_23_27
*1201 FILLER_0_23_275
*1202 FILLER_0_23_279
*1203 FILLER_0_23_281
*1204 FILLER_0_23_285
*1205 FILLER_0_23_299
*1206 FILLER_0_23_3
*1207 FILLER_0_23_313
*1208 FILLER_0_23_319
*1209 FILLER_0_23_325
*1210 FILLER_0_23_333
*1211 FILLER_0_23_39
*1212 FILLER_0_23_51
*1213 FILLER_0_23_55
*1214 FILLER_0_23_57
*1215 FILLER_0_23_69
*1216 FILLER_0_23_81
*1217 FILLER_0_23_95
*1218 FILLER_0_24_112
*1219 FILLER_0_24_130
*1220 FILLER_0_24_138
*1221 FILLER_0_24_141
*1222 FILLER_0_24_145
*1223 FILLER_0_24_15
*1224 FILLER_0_24_153
*1225 FILLER_0_24_171
*1226 FILLER_0_24_179
*1227 FILLER_0_24_197
*1228 FILLER_0_24_216
*1229 FILLER_0_24_230
*1230 FILLER_0_24_241
*1231 FILLER_0_24_249
*1232 FILLER_0_24_253
*1233 FILLER_0_24_259
*1234 FILLER_0_24_27
*1235 FILLER_0_24_274
*1236 FILLER_0_24_278
*1237 FILLER_0_24_29
*1238 FILLER_0_24_294
*1239 FILLER_0_24_3
*1240 FILLER_0_24_300
*1241 FILLER_0_24_309
*1242 FILLER_0_24_41
*1243 FILLER_0_24_53
*1244 FILLER_0_24_65
*1245 FILLER_0_24_77
*1246 FILLER_0_24_83
*1247 FILLER_0_24_85
*1248 FILLER_0_24_93
*1249 FILLER_0_25_103
*1250 FILLER_0_25_111
*1251 FILLER_0_25_113
*1252 FILLER_0_25_125
*1253 FILLER_0_25_136
*1254 FILLER_0_25_144
*1255 FILLER_0_25_15
*1256 FILLER_0_25_150
*1257 FILLER_0_25_158
*1258 FILLER_0_25_176
*1259 FILLER_0_25_188
*1260 FILLER_0_25_197
*1261 FILLER_0_25_201
*1262 FILLER_0_25_213
*1263 FILLER_0_25_221
*1264 FILLER_0_25_241
*1265 FILLER_0_25_245
*1266 FILLER_0_25_249
*1267 FILLER_0_25_267
*1268 FILLER_0_25_27
*1269 FILLER_0_25_279
*1270 FILLER_0_25_284
*1271 FILLER_0_25_3
*1272 FILLER_0_25_302
*1273 FILLER_0_25_308
*1274 FILLER_0_25_320
*1275 FILLER_0_25_326
*1276 FILLER_0_25_39
*1277 FILLER_0_25_51
*1278 FILLER_0_25_55
*1279 FILLER_0_25_57
*1280 FILLER_0_25_69
*1281 FILLER_0_25_81
*1282 FILLER_0_25_93
*1283 FILLER_0_26_111
*1284 FILLER_0_26_135
*1285 FILLER_0_26_139
*1286 FILLER_0_26_141
*1287 FILLER_0_26_15
*1288 FILLER_0_26_168
*1289 FILLER_0_26_176
*1290 FILLER_0_26_194
*1291 FILLER_0_26_197