*SPEF "ieee 1481-1999"
*DESIGN "tt_um_SteffenReith_PiMACTop"
*DATE "22:16:30 Thursday April 18, 2024"
*VENDOR "The OpenROAD Project"
*PROGRAM "OpenROAD"
*VERSION "0889970d1790a2617e69f253221b8bd7626e51dc"
*DESIGN_FLOW "NAME_SCOPE LOCAL" "PIN_CAP NONE"
*DIVIDER /
*DELIMITER :
*BUS_DELIMITER []
*T_UNIT 1 NS
*C_UNIT 1 PF
*R_UNIT 1 OHM
*L_UNIT 1 HENRY

*NAME_MAP
*3 clk
*4 ena
*5 rst_n
*6 ui_in[0]
*7 ui_in[1]
*8 ui_in[2]
*9 ui_in[3]
*10 ui_in[4]
*11 ui_in[5]
*12 ui_in[6]
*13 ui_in[7]
*14 uio_in[0]
*15 uio_in[1]
*16 uio_in[2]
*17 uio_in[3]
*18 uio_in[4]
*19 uio_in[5]
*20 uio_in[6]
*21 uio_in[7]
*22 net13
*23 net14
*24 net15
*25 net16
*26 net17
*27 net18
*28 net19
*29 net20
*30 net21
*31 net22
*32 net23
*33 net24
*34 net25
*35 net26
*36 net27
*37 net28
*38 uo_out[0]
*39 uo_out[1]
*40 uo_out[2]
*41 uo_out[3]
*42 uo_out[4]
*43 uo_out[5]
*44 uo_out[6]
*45 uo_out[7]
*46 _000_
*47 _001_
*48 _002_
*49 _003_
*50 _004_
*51 _005_
*52 _006_
*53 _007_
*54 _008_
*55 _009_
*56 _010_
*57 _011_
*58 _012_
*59 _013_
*60 _014_
*61 _015_
*62 _016_
*63 _017_
*64 _018_
*65 _019_
*66 _020_
*67 _021_
*68 _022_
*69 _023_
*70 _024_
*71 _025_
*72 _026_
*73 _027_
*74 _028_
*75 _029_
*76 _030_
*77 _031_
*78 _032_
*79 _033_
*80 _034_
*81 _035_
*82 _036_
*83 _037_
*84 _038_
*85 _039_
*86 _040_
*87 _041_
*88 _042_
*89 _043_
*90 _044_
*91 _045_
*92 _046_
*93 _047_
*94 _048_
*95 _049_
*96 _050_
*97 _051_
*98 _052_
*99 _053_
*100 _054_
*101 _055_
*102 clknet_0_clk
*103 clknet_2_0__leaf_clk
*104 clknet_2_1__leaf_clk
*105 clknet_2_2__leaf_clk
*106 clknet_2_3__leaf_clk
*107 net1
*108 net10
*109 net11
*110 net12
*111 net2
*112 net29
*113 net3
*114 net30
*115 net31
*116 net32
*117 net33
*118 net34
*119 net35
*120 net36
*121 net37
*122 net38
*123 net39
*124 net4
*125 net40
*126 net41
*127 net42
*128 net43
*129 net44
*130 net45
*131 net5
*132 net6
*133 net7
*134 net8
*135 net9
*136 piMAC\._zz_nodes_1_ACC_1\[1\]
*137 piMAC\._zz_nodes_1_ACC_1\[2\]
*138 piMAC\._zz_nodes_1_ACC_1\[3\]
*139 piMAC\._zz_nodes_1_ACC_1\[4\]
*140 piMAC\._zz_nodes_2_ACC_2\[2\]
*141 piMAC\._zz_nodes_2_ACC_2\[3\]
*142 piMAC\._zz_nodes_2_ACC_2\[4\]
*143 piMAC\._zz_nodes_2_ACC_2\[5\]
*144 piMAC\._zz_nodes_3_ACC_3\[3\]
*145 piMAC\._zz_nodes_3_ACC_3\[4\]
*146 piMAC\._zz_nodes_3_ACC_3\[5\]
*147 piMAC\._zz_nodes_3_ACC_3\[6\]
*148 piMAC\.nodes_0_ACC_0\[0\]
*149 piMAC\.nodes_0_ACC_0\[1\]
*150 piMAC\.nodes_0_ACC_0\[2\]
*151 piMAC\.nodes_0_ACC_0\[3\]
*152 piMAC\.nodes_0_ACC_0\[4\]
*153 piMAC\.nodes_1_ACC_0\[0\]
*154 piMAC\.nodes_1_ACC_0\[1\]
*155 piMAC\.nodes_1_ACC_0\[2\]
*156 piMAC\.nodes_1_ACC_0\[3\]
*157 piMAC\.nodes_1_ACC_0\[4\]
*158 piMAC\.nodes_1_ACC_1\[1\]
*159 piMAC\.nodes_1_ACC_1\[2\]
*160 piMAC\.nodes_1_ACC_1\[3\]
*161 piMAC\.nodes_1_ACC_1\[4\]
*162 piMAC\.nodes_1_ACC_1\[5\]
*163 piMAC\.nodes_1_B\[1\]
*164 piMAC\.nodes_1_B\[2\]
*165 piMAC\.nodes_1_B\[3\]
*166 piMAC\.nodes_2_ACC_1\[0\]
*167 piMAC\.nodes_2_ACC_1\[1\]
*168 piMAC\.nodes_2_ACC_1\[2\]
*169 piMAC\.nodes_2_ACC_1\[3\]
*170 piMAC\.nodes_2_ACC_1\[4\]
*171 piMAC\.nodes_2_ACC_1\[5\]
*172 piMAC\.nodes_2_ACC_2\[2\]
*173 piMAC\.nodes_2_ACC_2\[3\]
*174 piMAC\.nodes_2_ACC_2\[4\]
*175 piMAC\.nodes_2_ACC_2\[5\]
*176 piMAC\.nodes_2_ACC_2\[6\]
*177 piMAC\.nodes_2_B\[2\]
*178 piMAC\.nodes_2_B\[3\]
*179 piMAC\.nodes_3_ACC_2\[0\]
*180 piMAC\.nodes_3_ACC_2\[1\]
*181 piMAC\.nodes_3_ACC_2\[2\]
*182 piMAC\.nodes_3_ACC_2\[3\]
*183 piMAC\.nodes_3_ACC_2\[4\]
*184 piMAC\.nodes_3_ACC_2\[5\]
*185 piMAC\.nodes_3_ACC_2\[6\]
*186 piMAC\.nodes_3_B\[3\]
*187 FILLER_0_0_109
*188 FILLER_0_0_113
*189 FILLER_0_0_125
*190 FILLER_0_0_137
*191 FILLER_0_0_141
*192 FILLER_0_0_15
*193 FILLER_0_0_153
*194 FILLER_0_0_165
*195 FILLER_0_0_169
*196 FILLER_0_0_181
*197 FILLER_0_0_193
*198 FILLER_0_0_197
*199 FILLER_0_0_209
*200 FILLER_0_0_221
*201 FILLER_0_0_225
*202 FILLER_0_0_237
*203 FILLER_0_0_249
*204 FILLER_0_0_253
*205 FILLER_0_0_265
*206 FILLER_0_0_27
*207 FILLER_0_0_277
*208 FILLER_0_0_281
*209 FILLER_0_0_29
*210 FILLER_0_0_293
*211 FILLER_0_0_3
*212 FILLER_0_0_305
*213 FILLER_0_0_309
*214 FILLER_0_0_321
*215 FILLER_0_0_333
*216 FILLER_0_0_41
*217 FILLER_0_0_53
*218 FILLER_0_0_57
*219 FILLER_0_0_69
*220 FILLER_0_0_81
*221 FILLER_0_0_85
*222 FILLER_0_0_97
*223 FILLER_0_10_109
*224 FILLER_0_10_121
*225 FILLER_0_10_133
*226 FILLER_0_10_139
*227 FILLER_0_10_141
*228 FILLER_0_10_15
*229 FILLER_0_10_153
*230 FILLER_0_10_165
*231 FILLER_0_10_177
*232 FILLER_0_10_189
*233 FILLER_0_10_195
*234 FILLER_0_10_197
*235 FILLER_0_10_209
*236 FILLER_0_10_221
*237 FILLER_0_10_233
*238 FILLER_0_10_245
*239 FILLER_0_10_251
*240 FILLER_0_10_253
*241 FILLER_0_10_265
*242 FILLER_0_10_27
*243 FILLER_0_10_277
*244 FILLER_0_10_289
*245 FILLER_0_10_29
*246 FILLER_0_10_3
*247 FILLER_0_10_301
*248 FILLER_0_10_307
*249 FILLER_0_10_309
*250 FILLER_0_10_321
*251 FILLER_0_10_333
*252 FILLER_0_10_41
*253 FILLER_0_10_53
*254 FILLER_0_10_65
*255 FILLER_0_10_77
*256 FILLER_0_10_83
*257 FILLER_0_10_85
*258 FILLER_0_10_97
*259 FILLER_0_11_105
*260 FILLER_0_11_111
*261 FILLER_0_11_113
*262 FILLER_0_11_125
*263 FILLER_0_11_137
*264 FILLER_0_11_149
*265 FILLER_0_11_15
*266 FILLER_0_11_161
*267 FILLER_0_11_167
*268 FILLER_0_11_169
*269 FILLER_0_11_181
*270 FILLER_0_11_193
*271 FILLER_0_11_205
*272 FILLER_0_11_217
*273 FILLER_0_11_223
*274 FILLER_0_11_225
*275 FILLER_0_11_237
*276 FILLER_0_11_249
*277 FILLER_0_11_261
*278 FILLER_0_11_27
*279 FILLER_0_11_273
*280 FILLER_0_11_279
*281 FILLER_0_11_281
*282 FILLER_0_11_293
*283 FILLER_0_11_3
*284 FILLER_0_11_305
*285 FILLER_0_11_317
*286 FILLER_0_11_329
*287 FILLER_0_11_39
*288 FILLER_0_11_51
*289 FILLER_0_11_55
*290 FILLER_0_11_57
*291 FILLER_0_11_69
*292 FILLER_0_11_81
*293 FILLER_0_11_93
*294 FILLER_0_12_109
*295 FILLER_0_12_121
*296 FILLER_0_12_133
*297 FILLER_0_12_139
*298 FILLER_0_12_141
*299 FILLER_0_12_15
*300 FILLER_0_12_153
*301 FILLER_0_12_165
*302 FILLER_0_12_177
*303 FILLER_0_12_189
*304 FILLER_0_12_195
*305 FILLER_0_12_197
*306 FILLER_0_12_209
*307 FILLER_0_12_221
*308 FILLER_0_12_233
*309 FILLER_0_12_245
*310 FILLER_0_12_251
*311 FILLER_0_12_253
*312 FILLER_0_12_265
*313 FILLER_0_12_27
*314 FILLER_0_12_277
*315 FILLER_0_12_289
*316 FILLER_0_12_29
*317 FILLER_0_12_3
*318 FILLER_0_12_301
*319 FILLER_0_12_307
*320 FILLER_0_12_309
*321 FILLER_0_12_321
*322 FILLER_0_12_333
*323 FILLER_0_12_41
*324 FILLER_0_12_53
*325 FILLER_0_12_65
*326 FILLER_0_12_77
*327 FILLER_0_12_83
*328 FILLER_0_12_85
*329 FILLER_0_12_97
*330 FILLER_0_13_105
*331 FILLER_0_13_111
*332 FILLER_0_13_113
*333 FILLER_0_13_125
*334 FILLER_0_13_137
*335 FILLER_0_13_149
*336 FILLER_0_13_15
*337 FILLER_0_13_161
*338 FILLER_0_13_167
*339 FILLER_0_13_169
*340 FILLER_0_13_181
*341 FILLER_0_13_193
*342 FILLER_0_13_205
*343 FILLER_0_13_217
*344 FILLER_0_13_223
*345 FILLER_0_13_225
*346 FILLER_0_13_237
*347 FILLER_0_13_249
*348 FILLER_0_13_261
*349 FILLER_0_13_27
*350 FILLER_0_13_273
*351 FILLER_0_13_279
*352 FILLER_0_13_281
*353 FILLER_0_13_293
*354 FILLER_0_13_3
*355 FILLER_0_13_305
*356 FILLER_0_13_317
*357 FILLER_0_13_329
*358 FILLER_0_13_39
*359 FILLER_0_13_51
*360 FILLER_0_13_55
*361 FILLER_0_13_57
*362 FILLER_0_13_69
*363 FILLER_0_13_81
*364 FILLER_0_13_93
*365 FILLER_0_14_109
*366 FILLER_0_14_121
*367 FILLER_0_14_133
*368 FILLER_0_14_139
*369 FILLER_0_14_141
*370 FILLER_0_14_15
*371 FILLER_0_14_153
*372 FILLER_0_14_165
*373 FILLER_0_14_177
*374 FILLER_0_14_189
*375 FILLER_0_14_195
*376 FILLER_0_14_197
*377 FILLER_0_14_209
*378 FILLER_0_14_221
*379 FILLER_0_14_233
*380 FILLER_0_14_245
*381 FILLER_0_14_251
*382 FILLER_0_14_253
*383 FILLER_0_14_265
*384 FILLER_0_14_27
*385 FILLER_0_14_277
*386 FILLER_0_14_289
*387 FILLER_0_14_29
*388 FILLER_0_14_3
*389 FILLER_0_14_301
*390 FILLER_0_14_307
*391 FILLER_0_14_309
*392 FILLER_0_14_321
*393 FILLER_0_14_333
*394 FILLER_0_14_41
*395 FILLER_0_14_53
*396 FILLER_0_14_65
*397 FILLER_0_14_77
*398 FILLER_0_14_83
*399 FILLER_0_14_85
*400 FILLER_0_14_97
*401 FILLER_0_15_105
*402 FILLER_0_15_111
*403 FILLER_0_15_113
*404 FILLER_0_15_125
*405 FILLER_0_15_137
*406 FILLER_0_15_149
*407 FILLER_0_15_15
*408 FILLER_0_15_161
*409 FILLER_0_15_167
*410 FILLER_0_15_169
*411 FILLER_0_15_181
*412 FILLER_0_15_193
*413 FILLER_0_15_205
*414 FILLER_0_15_217
*415 FILLER_0_15_223
*416 FILLER_0_15_225
*417 FILLER_0_15_237
*418 FILLER_0_15_249
*419 FILLER_0_15_261
*420 FILLER_0_15_27
*421 FILLER_0_15_273
*422 FILLER_0_15_279
*423 FILLER_0_15_281
*424 FILLER_0_15_293
*425 FILLER_0_15_3
*426 FILLER_0_15_305
*427 FILLER_0_15_317
*428 FILLER_0_15_329
*429 FILLER_0_15_39
*430 FILLER_0_15_51
*431 FILLER_0_15_55
*432 FILLER_0_15_57
*433 FILLER_0_15_69
*434 FILLER_0_15_81
*435 FILLER_0_15_93
*436 FILLER_0_16_109
*437 FILLER_0_16_121
*438 FILLER_0_16_133
*439 FILLER_0_16_139
*440 FILLER_0_16_141
*441 FILLER_0_16_15
*442 FILLER_0_16_153
*443 FILLER_0_16_165
*444 FILLER_0_16_177
*445 FILLER_0_16_189
*446 FILLER_0_16_195
*447 FILLER_0_16_197
*448 FILLER_0_16_209
*449 FILLER_0_16_221
*450 FILLER_0_16_233
*451 FILLER_0_16_245
*452 FILLER_0_16_251
*453 FILLER_0_16_253
*454 FILLER_0_16_265
*455 FILLER_0_16_27
*456 FILLER_0_16_277
*457 FILLER_0_16_289
*458 FILLER_0_16_29
*459 FILLER_0_16_3
*460 FILLER_0_16_301
*461 FILLER_0_16_307
*462 FILLER_0_16_309
*463 FILLER_0_16_321
*464 FILLER_0_16_333
*465 FILLER_0_16_41
*466 FILLER_0_16_53
*467 FILLER_0_16_65
*468 FILLER_0_16_77
*469 FILLER_0_16_83
*470 FILLER_0_16_85
*471 FILLER_0_16_97
*472 FILLER_0_17_105
*473 FILLER_0_17_111
*474 FILLER_0_17_113
*475 FILLER_0_17_125
*476 FILLER_0_17_137
*477 FILLER_0_17_149
*478 FILLER_0_17_15
*479 FILLER_0_17_161
*480 FILLER_0_17_167
*481 FILLER_0_17_169
*482 FILLER_0_17_181
*483 FILLER_0_17_193
*484 FILLER_0_17_205
*485 FILLER_0_17_217
*486 FILLER_0_17_223
*487 FILLER_0_17_225
*488 FILLER_0_17_237
*489 FILLER_0_17_249
*490 FILLER_0_17_261
*491 FILLER_0_17_27
*492 FILLER_0_17_273
*493 FILLER_0_17_279
*494 FILLER_0_17_281
*495 FILLER_0_17_293
*496 FILLER_0_17_3
*497 FILLER_0_17_305
*498 FILLER_0_17_317
*499 FILLER_0_17_329
*500 FILLER_0_17_39
*501 FILLER_0_17_51
*502 FILLER_0_17_55
*503 FILLER_0_17_57
*504 FILLER_0_17_69
*505 FILLER_0_17_81
*506 FILLER_0_17_93
*507 FILLER_0_18_109
*508 FILLER_0_18_121
*509 FILLER_0_18_133
*510 FILLER_0_18_139
*511 FILLER_0_18_141
*512 FILLER_0_18_15
*513 FILLER_0_18_153
*514 FILLER_0_18_165
*515 FILLER_0_18_177
*516 FILLER_0_18_189
*517 FILLER_0_18_195
*518 FILLER_0_18_197
*519 FILLER_0_18_209
*520 FILLER_0_18_221
*521 FILLER_0_18_233
*522 FILLER_0_18_245
*523 FILLER_0_18_251
*524 FILLER_0_18_253
*525 FILLER_0_18_265
*526 FILLER_0_18_27
*527 FILLER_0_18_277
*528 FILLER_0_18_289
*529 FILLER_0_18_29
*530 FILLER_0_18_3
*531 FILLER_0_18_301
*532 FILLER_0_18_307
*533 FILLER_0_18_309
*534 FILLER_0_18_321
*535 FILLER_0_18_333
*536 FILLER_0_18_41
*537 FILLER_0_18_53
*538 FILLER_0_18_65
*539 FILLER_0_18_77
*540 FILLER_0_18_83
*541 FILLER_0_18_85
*542 FILLER_0_18_97
*543 FILLER_0_19_105
*544 FILLER_0_19_111
*545 FILLER_0_19_113
*546 FILLER_0_19_125
*547 FILLER_0_19_137
*548 FILLER_0_19_149
*549 FILLER_0_19_15
*550 FILLER_0_19_161
*551 FILLER_0_19_167
*552 FILLER_0_19_169
*553 FILLER_0_19_181
*554 FILLER_0_19_193
*555 FILLER_0_19_205
*556 FILLER_0_19_217
*557 FILLER_0_19_223
*558 FILLER_0_19_225
*559 FILLER_0_19_237
*560 FILLER_0_19_249
*561 FILLER_0_19_261
*562 FILLER_0_19_27
*563 FILLER_0_19_273
*564 FILLER_0_19_279
*565 FILLER_0_19_281
*566 FILLER_0_19_293
*567 FILLER_0_19_3
*568 FILLER_0_19_305
*569 FILLER_0_19_317
*570 FILLER_0_19_329
*571 FILLER_0_19_39
*572 FILLER_0_19_51
*573 FILLER_0_19_55
*574 FILLER_0_19_57
*575 FILLER_0_19_69
*576 FILLER_0_19_81
*577 FILLER_0_19_93
*578 FILLER_0_1_105
*579 FILLER_0_1_111
*580 FILLER_0_1_113
*581 FILLER_0_1_125
*582 FILLER_0_1_137
*583 FILLER_0_1_149
*584 FILLER_0_1_15
*585 FILLER_0_1_161
*586 FILLER_0_1_167
*587 FILLER_0_1_169
*588 FILLER_0_1_181
*589 FILLER_0_1_193
*590 FILLER_0_1_205
*591 FILLER_0_1_217
*592 FILLER_0_1_223
*593 FILLER_0_1_225
*594 FILLER_0_1_237
*595 FILLER_0_1_249
*596 FILLER_0_1_261
*597 FILLER_0_1_27
*598 FILLER_0_1_273
*599 FILLER_0_1_279
*600 FILLER_0_1_281
*601 FILLER_0_1_293
*602 FILLER_0_1_3
*603 FILLER_0_1_305
*604 FILLER_0_1_317
*605 FILLER_0_1_329
*606 FILLER_0_1_39
*607 FILLER_0_1_51
*608 FILLER_0_1_55
*609 FILLER_0_1_57
*610 FILLER_0_1_69
*611 FILLER_0_1_81
*612 FILLER_0_1_93
*613 FILLER_0_20_109
*614 FILLER_0_20_121
*615 FILLER_0_20_133
*616 FILLER_0_20_139
*617 FILLER_0_20_141
*618 FILLER_0_20_15
*619 FILLER_0_20_153
*620 FILLER_0_20_165
*621 FILLER_0_20_177
*622 FILLER_0_20_189
*623 FILLER_0_20_195
*624 FILLER_0_20_197
*625 FILLER_0_20_209
*626 FILLER_0_20_221
*627 FILLER_0_20_233
*628 FILLER_0_20_245
*629 FILLER_0_20_251
*630 FILLER_0_20_253
*631 FILLER_0_20_265
*632 FILLER_0_20_27
*633 FILLER_0_20_277
*634 FILLER_0_20_289
*635 FILLER_0_20_29
*636 FILLER_0_20_3
*637 FILLER_0_20_301
*638 FILLER_0_20_307
*639 FILLER_0_20_309
*640 FILLER_0_20_321
*641 FILLER_0_20_333
*642 FILLER_0_20_41
*643 FILLER_0_20_53
*644 FILLER_0_20_65
*645 FILLER_0_20_77
*646 FILLER_0_20_83
*647 FILLER_0_20_85
*648 FILLER_0_20_97
*649 FILLER_0_21_105
*650 FILLER_0_21_111
*651 FILLER_0_21_113
*652 FILLER_0_21_125
*653 FILLER_0_21_137
*654 FILLER_0_21_149
*655 FILLER_0_21_15
*656 FILLER_0_21_161
*657 FILLER_0_21_167
*658 FILLER_0_21_169
*659 FILLER_0_21_181
*660 FILLER_0_21_193
*661 FILLER_0_21_205
*662 FILLER_0_21_217
*663 FILLER_0_21_223
*664 FILLER_0_21_225
*665 FILLER_0_21_237
*666 FILLER_0_21_249
*667 FILLER_0_21_261
*668 FILLER_0_21_27
*669 FILLER_0_21_273
*670 FILLER_0_21_279
*671 FILLER_0_21_281
*672 FILLER_0_21_293
*673 FILLER_0_21_3
*674 FILLER_0_21_305
*675 FILLER_0_21_317
*676 FILLER_0_21_329
*677 FILLER_0_21_39
*678 FILLER_0_21_51
*679 FILLER_0_21_55
*680 FILLER_0_21_57
*681 FILLER_0_21_69
*682 FILLER_0_21_81
*683 FILLER_0_21_93
*684 FILLER_0_22_109
*685 FILLER_0_22_121
*686 FILLER_0_22_133
*687 FILLER_0_22_139
*688 FILLER_0_22_141
*689 FILLER_0_22_15
*690 FILLER_0_22_153
*691 FILLER_0_22_165
*692 FILLER_0_22_177
*693 FILLER_0_22_189
*694 FILLER_0_22_195
*695 FILLER_0_22_197
*696 FILLER_0_22_209
*697 FILLER_0_22_221
*698 FILLER_0_22_233
*699 FILLER_0_22_245
*700 FILLER_0_22_251
*701 FILLER_0_22_253
*702 FILLER_0_22_265
*703 FILLER_0_22_27
*704 FILLER_0_22_277
*705 FILLER_0_22_289
*706 FILLER_0_22_29
*707 FILLER_0_22_3
*708 FILLER_0_22_301
*709 FILLER_0_22_307
*710 FILLER_0_22_309
*711 FILLER_0_22_321
*712 FILLER_0_22_333
*713 FILLER_0_22_41
*714 FILLER_0_22_53
*715 FILLER_0_22_65
*716 FILLER_0_22_77
*717 FILLER_0_22_83
*718 FILLER_0_22_85
*719 FILLER_0_22_97
*720 FILLER_0_23_105
*721 FILLER_0_23_111
*722 FILLER_0_23_113
*723 FILLER_0_23_125
*724 FILLER_0_23_137
*725 FILLER_0_23_149
*726 FILLER_0_23_15
*727 FILLER_0_23_161
*728 FILLER_0_23_167
*729 FILLER_0_23_169
*730 FILLER_0_23_181
*731 FILLER_0_23_193
*732 FILLER_0_23_205
*733 FILLER_0_23_217
*734 FILLER_0_23_223
*735 FILLER_0_23_225
*736 FILLER_0_23_237
*737 FILLER_0_23_249
*738 FILLER_0_23_261
*739 FILLER_0_23_27
*740 FILLER_0_23_273
*741 FILLER_0_23_279
*742 FILLER_0_23_281
*743 FILLER_0_23_293
*744 FILLER_0_23_3
*745 FILLER_0_23_305
*746 FILLER_0_23_317
*747 FILLER_0_23_329
*748 FILLER_0_23_39
*749 FILLER_0_23_51
*750 FILLER_0_23_55
*751 FILLER_0_23_57
*752 FILLER_0_23_69
*753 FILLER_0_23_81
*754 FILLER_0_23_93
*755 FILLER_0_24_109
*756 FILLER_0_24_121
*757 FILLER_0_24_133
*758 FILLER_0_24_139
*759 FILLER_0_24_141
*760 FILLER_0_24_15
*761 FILLER_0_24_153
*762 FILLER_0_24_165
*763 FILLER_0_24_177
*764 FILLER_0_24_189
*765 FILLER_0_24_195
*766 FILLER_0_24_197
*767 FILLER_0_24_209
*768 FILLER_0_24_221
*769 FILLER_0_24_233
*770 FILLER_0_24_245
*771 FILLER_0_24_251
*772 FILLER_0_24_253
*773 FILLER_0_24_265
*774 FILLER_0_24_27
*775 FILLER_0_24_277
*776 FILLER_0_24_289
*777 FILLER_0_24_29
*778 FILLER_0_24_3
*779 FILLER_0_24_301
*780 FILLER_0_24_307
*781 FILLER_0_24_309
*782 FILLER_0_24_321
*783 FILLER_0_24_333
*784 FILLER_0_24_41
*785 FILLER_0_24_53
*786 FILLER_0_24_65
*787 FILLER_0_24_77
*788 FILLER_0_24_83
*789 FILLER_0_24_85
*790 FILLER_0_24_97
*791 FILLER_0_25_105
*792 FILLER_0_25_111
*793 FILLER_0_25_113
*794 FILLER_0_25_125
*795 FILLER_0_25_137
*796 FILLER_0_25_149
*797 FILLER_0_25_15
*798 FILLER_0_25_161
*799 FILLER_0_25_167
*800 FILLER_0_25_169
*801 FILLER_0_25_181
*802 FILLER_0_25_193
*803 FILLER_0_25_205
*804 FILLER_0_25_217
*805 FILLER_0_25_223
*806 FILLER_0_25_225
*807 FILLER_0_25_237
*808 FILLER_0_25_249
*809 FILLER_0_25_261
*810 FILLER_0_25_27
*811 FILLER_0_25_273
*812 FILLER_0_25_279
*813 FILLER_0_25_281
*814 FILLER_0_25_293
*815 FILLER_0_25_3
*816 FILLER_0_25_305
*817 FILLER_0_25_317
*818 FILLER_0_25_329
*819 FILLER_0_25_39
*820 FILLER_0_25_51
*821 FILLER_0_25_55
*822 FILLER_0_25_57
*823 FILLER_0_25_69
*824 FILLER_0_25_81
*825 FILLER_0_25_93
*826 FILLER_0_26_109
*827 FILLER_0_26_121
*828 FILLER_0_26_133
*829 FILLER_0_26_139
*830 FILLER_0_26_141
*831 FILLER_0_26_15
*832 FILLER_0_26_153
*833 FILLER_0_26_165
*834 FILLER_0_26_177
*835 FILLER_0_26_189
*836 FILLER_0_26_195
*837 FILLER_0_26_197
*838 FILLER_0_26_209
*839 FILLER_0_26_221
*840 FILLER_0_26_233
*841 FILLER_0_26_245
*842 FILLER_0_26_251
*843 FILLER_0_26_253
*844 FILLER_0_26_265
*845 FILLER_0_26_27
*846 FILLER_0_26_277
*847 FILLER_0_26_289
*848 FILLER_0_26_29
*849 FILLER_0_26_3
*850 FILLER_0_26_301
*851 FILLER_0_26_307
*852 FILLER_0_26_309
*853 FILLER_0_26_321
*854 FILLER_0_26_333
*855 FILLER_0_26_41
*856 FILLER_0_26_53
*857 FILLER_0_26_65
*858 FILLER_0_26_77
*859 FILLER_0_26_83
*860 FILLER_0_26_85
*861 FILLER_0_26_97
*862 FILLER_0_27_105
*863 FILLER_0_27_111
*864 FILLER_0_27_113
*865 FILLER_0_27_125
*866 FILLER_0_27_137
*867 FILLER_0_27_149
*868 FILLER_0_27_15
*869 FILLER_0_27_161
*870 FILLER_0_27_167
*871 FILLER_0_27_169
*872 FILLER_0_27_181
*873 FILLER_0_27_193
*874 FILLER_0_27_205
*875 FILLER_0_27_217
*876 FILLER_0_27_223
*877 FILLER_0_27_225
*878 FILLER_0_27_237
*879 FILLER_0_27_249
*880 FILLER_0_27_261
*881 FILLER_0_27_27
*882 FILLER_0_27_273
*883 FILLER_0_27_279
*884 FILLER_0_27_281
*885 FILLER_0_27_293
*886 FILLER_0_27_3
*887 FILLER_0_27_305
*888 FILLER_0_27_317
*889 FILLER_0_27_329
*890 FILLER_0_27_39
*891 FILLER_0_27_51
*892 FILLER_0_27_55
*893 FILLER_0_27_57
*894 FILLER_0_27_69
*895 FILLER_0_27_81
*896 FILLER_0_27_93
*897 FILLER_0_28_109
*898 FILLER_0_28_121
*899 FILLER_0_28_133
*900 FILLER_0_28_139
*901 FILLER_0_28_141
*902 FILLER_0_28_15
*903 FILLER_0_28_153
*904 FILLER_0_28_165
*905 FILLER_0_28_177
*906 FILLER_0_28_189
*907 FILLER_0_28_195
*908 FILLER_0_28_197
*909 FILLER_0_28_209
*910 FILLER_0_28_221
*911 FILLER_0_28_233
*912 FILLER_0_28_245
*913 FILLER_0_28_251
*914 FILLER_0_28_253
*915 FILLER_0_28_265
*916 FILLER_0_28_27
*917 FILLER_0_28_277
*918 FILLER_0_28_289
*919 FILLER_0_28_29
*920 FILLER_0_28_3
*921 FILLER_0_28_301
*922 FILLER_0_28_307
*923 FILLER_0_28_309
*924 FILLER_0_28_321
*925 FILLER_0_28_333
*926 FILLER_0_28_41
*927 FILLER_0_28_53
*928 FILLER_0_28_65
*929 FILLER_0_28_77
*930 FILLER_0_28_83
*931 FILLER_0_28_85
*932 FILLER_0_28_97
*933 FILLER_0_29_105
*934 FILLER_0_29_111
*935 FILLER_0_29_113
*936 FILLER_0_29_125
*937 FILLER_0_29_137
*938 FILLER_0_29_141
*939 FILLER_0_29_146
*940 FILLER_0_29_15
*941 FILLER_0_29_153
*942 FILLER_0_29_161
*943 FILLER_0_29_167
*944 FILLER_0_29_169
*945 FILLER_0_29_181
*946 FILLER_0_29_193
*947 FILLER_0_29_205
*948 FILLER_0_29_217
*949 FILLER_0_29_223
*950 FILLER_0_29_225
*951 FILLER_0_29_234
*952 FILLER_0_29_246
*953 FILLER_0_29_258
*954 FILLER_0_29_27
*955 FILLER_0_29_270
*956 FILLER_0_29_278
*957 FILLER_0_29_281
*958 FILLER_0_29_293
*959 FILLER_0_29_3
*960 FILLER_0_29_305
*961 FILLER_0_29_317
*962 FILLER_0_29_329
*963 FILLER_0_29_39
*964 FILLER_0_29_51
*965 FILLER_0_29_55
*966 FILLER_0_29_57
*967 FILLER_0_29_69
*968 FILLER_0_29_81
*969 FILLER_0_29_93
*970 FILLER_0_2_109
*971 FILLER_0_2_121
*972 FILLER_0_2_133
*973 FILLER_0_2_139
*974 FILLER_0_2_141
*975 FILLER_0_2_15
*976 FILLER_0_2_153
*977 FILLER_0_2_165
*978 FILLER_0_2_177
*979 FILLER_0_2_189
*980 FILLER_0_2_195
*981 FILLER_0_2_197
*982 FILLER_0_2_209
*983 FILLER_0_2_221
*984 FILLER_0_2_233
*985 FILLER_0_2_245
*986 FILLER_0_2_251
*987 FILLER_0_2_253
*988 FILLER_0_2_265
*989 FILLER_0_2_27
*990 FILLER_0_2_277
*991 FILLER_0_2_289
*992 FILLER_0_2_29
*993 FILLER_0_2_3
*994 FILLER_0_2_301
*995 FILLER_0_2_307
*996 FILLER_0_2_309
*997 FILLER_0_2_321
*998 FILLER_0_2_333
*999 FILLER_0_2_41
*1000 FILLER_0_2_53
*1001 FILLER_0_2_65
*1002 FILLER_0_2_77
*1003 FILLER_0_2_83
*1004 FILLER_0_2_85
*1005 FILLER_0_2_97
*1006 FILLER_0_30_109
*1007 FILLER_0_30_121
*1008 FILLER_0_30_129
*1009 FILLER_0_30_137
*1010 FILLER_0_30_141
*1011 FILLER_0_30_15
*1012 FILLER_0_30_197
*1013 FILLER_0_30_209
*1014 FILLER_0_30_245
*1015 FILLER_0_30_251
*1016 FILLER_0_30_253
*1017 FILLER_0_30_266
*1018 FILLER_0_30_27
*1019 FILLER_0_30_278
*1020 FILLER_0_30_29
*1021 FILLER_0_30_290
*1022 FILLER_0_30_3
*1023 FILLER_0_30_302
*1024 FILLER_0_30_309
*1025 FILLER_0_30_321
*1026 FILLER_0_30_333
*1027 FILLER_0_30_41
*1028 FILLER_0_30_53
*1029 FILLER_0_30_65
*1030 FILLER_0_30_77
*1031 FILLER_0_30_83
*1032 FILLER_0_30_85
*1033 FILLER_0_30_97
*1034 FILLER_0_31_105
*1035 FILLER_0_31_111
*1036 FILLER_0_31_113
*1037 FILLER_0_31_142
*1038 FILLER_0_31_149
*1039 FILLER_0_31_15
*1040 FILLER_0_31_169
*1041 FILLER_0_31_183
*1042 FILLER_0_31_195
*1043 FILLER_0_31_201
*1044 FILLER_0_31_218
*1045 FILLER_0_31_225
*1046 FILLER_0_31_27
*1047 FILLER_0_31_298
*1048 FILLER_0_31_3
*1049 FILLER_0_31_310
*1050 FILLER_0_31_322
*1051 FILLER_0_31_334
*1052 FILLER_0_31_39
*1053 FILLER_0_31_51
*1054 FILLER_0_31_55
*1055 FILLER_0_31_57
*1056 FILLER_0_31_69
*1057 FILLER_0_31_81
*1058 FILLER_0_31_93
*1059 FILLER_0_32_105
*1060 FILLER_0_32_139
*1061 FILLER_0_32_144
*1062 FILLER_0_32_15
*1063 FILLER_0_32_156
*1064 FILLER_0_32_160
*1065 FILLER_0_32_169
*1066 FILLER_0_32_184
*1067 FILLER_0_32_195
*1068 FILLER_0_32_213
*1069 FILLER_0_32_239
*1070 FILLER_0_32_251
*1071 FILLER_0_32_27
*1072 FILLER_0_32_29
*1073 FILLER_0_32_3
*1074 FILLER_0_32_305
*1075 FILLER_0_32_309
*1076 FILLER_0_32_321
*1077 FILLER_0_32_333
*1078 FILLER_0_32_41
*1079 FILLER_0_32_53
*1080 FILLER_0_32_65
*1081 FILLER_0_32_77
*1082 FILLER_0_32_83
*1083 FILLER_0_32_85
*1084 FILLER_0_32_97
*1085 FILLER_0_33_105
*1086 FILLER_0_33_111
*1087 FILLER_0_33_113
*1088 FILLER_0_33_117
*1089 FILLER_0_33_134
*1090 FILLER_0_33_146
*1091 FILLER_0_33_15
*1092 FILLER_0_33_150
*1093 FILLER_0_33_167
*1094 FILLER_0_33_169
*1095 FILLER_0_33_177
*1096 FILLER_0_33_213
*1097 FILLER_0_33_221
*1098 FILLER_0_33_249
*1099 FILLER_0_33_269
*1100 FILLER_0_33_27
*1101 FILLER_0_33_277
*1102 FILLER_0_33_297
*1103 FILLER_0_33_3
*1104 FILLER_0_33_309
*1105 FILLER_0_33_321
*1106 FILLER_0_33_333
*1107 FILLER_0_33_39
*1108 FILLER_0_33_51
*1109 FILLER_0_33_55
*1110 FILLER_0_33_57
*1111 FILLER_0_33_69
*1112 FILLER_0_33_81
*1113 FILLER_0_33_93
*1114 FILLER_0_34_109
*1115 FILLER_0_34_117
*1116 FILLER_0_34_138
*1117 FILLER_0_34_141
*1118 FILLER_0_34_15
*1119 FILLER_0_34_175
*1120 FILLER_0_34_197
*1121 FILLER_0_34_203
*1122 FILLER_0_34_224
*1123 FILLER_0_34_235
*1124 FILLER_0_34_243
*1125 FILLER_0_34_251
*1126 FILLER_0_34_253
*1127 FILLER_0_34_265
*1128 FILLER_0_34_27
*1129 FILLER_0_34_276
*1130 FILLER_0_34_282
*1131 FILLER_0_34_29
*1132 FILLER_0_34_299
*1133 FILLER_0_34_3
*1134 FILLER_0_34_307
*1135 FILLER_0_34_317
*1136 FILLER_0_34_329
*1137 FILLER_0_34_41
*1138 FILLER_0_34_53
*1139 FILLER_0_34_65
*1140 FILLER_0_34_77
*1141 FILLER_0_34_83
*1142 FILLER_0_34_85
*1143 FILLER_0_34_97
*1144 FILLER_0_35_105
*1145 FILLER_0_35_111
*1146 FILLER_0_35_113
*1147 FILLER_0_35_122
*1148 FILLER_0_35_126
*1149 FILLER_0_35_132
*1150 FILLER_0_35_136
*1151 FILLER_0_35_142
*1152 FILLER_0_35_15
*1153 FILLER_0_35_166
*1154 FILLER_0_35_199
*1155 FILLER_0_35_225
*1156 FILLER_0_35_247
*1157 FILLER_0_35_255
*1158 FILLER_0_35_27
*1159 FILLER_0_35_275
*1160 FILLER_0_35_279
*1161 FILLER_0_35_291
*1162 FILLER_0_35_3
*1163 FILLER_0_35_311
*1164 FILLER_0_35_323
*1165 FILLER_0_35_39
*1166 FILLER_0_35_51
*1167 FILLER_0_35_55
*1168 FILLER_0_35_57
*1169 FILLER_0_35_69
*1170 FILLER_0_35_81
*1171 FILLER_0_35_93
*1172 FILLER_0_36_130
*1173 FILLER_0_36_139
*1174 FILLER_0_36_15
*1175 FILLER_0_36_163
*1176 FILLER_0_36_167
*1177 FILLER_0_36_175
*1178 FILLER_0_36_179
*1179 FILLER_0_36_205
*1180 FILLER_0_36_209
*1181 FILLER_0_36_27
*1182 FILLER_0_36_288
*1183 FILLER_0_36_29
*1184 FILLER_0_36_3
*1185 FILLER_0_36_300
*1186 FILLER_0_36_309
*1187 FILLER_0_36_321
*1188 FILLER_0_36_333
*1189 FILLER_0_36_41
*1190 FILLER_0_36_53
*1191 FILLER_0_36_65
*1192 FILLER_0_36_77
*1193 FILLER_0_36_83
*1194 FILLER_0_36_85
*1195 FILLER_0_37_113
*1196 FILLER_0_37_121
*1197 FILLER_0_37_15
*1198 FILLER_0_37_221
*1199 FILLER_0_37_244
*1200 FILLER_0_37_255
*1201 FILLER_0_37_27
*1202 FILLER_0_37_279
*1203 FILLER_0_37_298
*1204 FILLER_0_37_3
*1205 FILLER_0_37_310
*1206 FILLER_0_37_322
*1207 FILLER_0_37_334
*1208 FILLER_0_37_39
*1209 FILLER_0_37_51
*1210 FILLER_0_37_55
*1211 FILLER_0_37_57
*1212 FILLER_0_37_69
*1213 FILLER_0_37_81
*1214 FILLER_0_37_93
*1215 FILLER_0_38_10
*1216 FILLER_0_38_106
*1217 FILLER_0_38_110
*1218 FILLER_0_38_113
*1219 FILLER_0_38_118
*1220 FILLER_0_38_122
*1221 FILLER_0_38_126
*1222 FILLER_0_38_135
*1223 FILLER_0_38_139
*1224 FILLER_0_38_14
*1225 FILLER_0_38_141
*1226 FILLER_0_38_149
*1227 FILLER_0_38_156
*1228 FILLER_0_38_166
*1229 FILLER_0_38_169
*1230 FILLER_0_38_18
*1231 FILLER_0_38_183
*1232 FILLER_0_38_193
*1233 FILLER_0_38_197
*1234 FILLER_0_38_205
*1235 FILLER_0_38_22
*1236 FILLER_0_38_247
*1237 FILLER_0_38_279
*1238 FILLER_0_38_303
*1239 FILLER_0_38_307
*1240 FILLER_0_38_312
*1241 FILLER_0_38_318
*1242 FILLER_0_38_32
*1243 FILLER_0_38_330
*1244 FILLER_0_38_334
*1245 FILLER_0_38_38
*1246 FILLER_0_38_42
*1247 FILLER_0_38_46
*1248 FILLER_0_38_50
*1249 FILLER_0_38_54
*1250 FILLER_0_38_57
*1251 FILLER_0_38_6
*1252 FILLER_0_38_62
*1253 FILLER_0_38_66
*1254 FILLER_0_38_70
*1255 FILLER_0_38_74
*1256 FILLER_0_38_78
*1257 FILLER_0_38_88
*1258 FILLER_0_38_94
*1259 FILLER_0_3_105
*1260 FILLER_0_3_111
*1261 FILLER_0_3_113
*1262 FILLER_0_3_125
*1263 FILLER_0_3_137
*1264 FILLER_0_3_149
*1265 FILLER_0_3_15
*1266 FILLER_0_3_161
*1267 FILLER_0_3_167
*1268 FILLER_0_3_169
*1269 FILLER_0_3_181
*1270 FILLER_0_3_193
*1271 FILLER_0_3_205
*1272 FILLER_0_3_217
*1273 FILLER_0_3_223
*1274 FILLER_0_3_225
*1275 FILLER_0_3_237
*1276 FILLER_0_3_249
*1277 FILLER_0_3_261
*1278 FILLER_0_3_27
*1279 FILLER_0_3_273
*1280 FILLER_0_3_279
*1281 FILLER_0_3_281
*1282 FILLER_0_3_293
*1283 FILLER_0_3_3
*1284 FILLER_0_3_305
*1285 FILLER_0_3_317
*1286 FILLER_0_3_329
*1287 FILLER_0_3_39
*1288 FILLER_0_3_51
*1289 FILLER_0_3_55
*1290 FILLER_0_3_57
*1291 FILLER_0_3_69
*1292 FILLER_0_3_81
*1293 FILLER_0_3_93
*1294 FILLER_0_4_109
*1295 FILLER_0_4_121
*1296 FILLER_0_4_133
*1297 FILLER_0_4_139
*1298 FILLER_0_4_141
*1299 FILLER_0_4_15
*1300 FILLER_0_4_153
*1301 FILLER_0_4_165
*1302 FILLER_0_4_177
*1303 FILLER_0_4_189
*1304 FILLER_0_4_195
*1305 FILLER_0_4_197
*1306 FILLER_0_4_209
*1307 FILLER_0_4_221
*1308 FILLER_0_4_233
*1309 FILLER_0_4_245
*1310 FILLER_0_4_251
*1311 FILLER_0_4_253
*1312 FILLER_0_4_265
*1313 FILLER_0_4_27
*1314 FILLER_0_4_277
*1315 FILLER_0_4_289
*1316 FILLER_0_4_29
*1317 FILLER_0_4_3
*1318 FILLER_0_4_301
*1319 FILLER_0_4_307
*1320 FILLER_0_4_309
*1321 FILLER_0_4_321
*1322 FILLER_0_4_333
*1323 FILLER_0_4_41
*1324 FILLER_0_4_53
*1325 FILLER_0_4_65
*1326 FILLER_0_4_77
*1327 FILLER_0_4_83
*1328 FILLER_0_4_85
*1329 FILLER_0_4_97
*1330 FILLER_0_5_105
*1331 FILLER_0_5_111
*1332 FILLER_0_5_113
*1333 FILLER_0_5_125
*1334 FILLER_0_5_137
*1335 FILLER_0_5_149
*1336 FILLER_0_5_15
*1337 FILLER_0_5_161
*1338 FILLER_0_5_167
*1339 FILLER_0_5_169
*1340 FILLER_0_5_181
*1341 FILLER_0_5_193
*1342 FILLER_0_5_205
*1343 FILLER_0_5_217
*1344 FILLER_0_5_223
*1345 FILLER_0_5_225
*1346 FILLER_0_5_237
*1347 FILLER_0_5_249
*1348 FILLER_0_5_261
*1349 FILLER_0_5_27
*1350 FILLER_0_5_273
*1351 FILLER_0_5_279
*1352 FILLER_0_5_281
*1353 FILLER_0_5_293
*1354 FILLER_0_5_3
*1355 FILLER_0_5_305
*1356 FILLER_0_5_317
*1357 FILLER_0_5_329
*1358 FILLER_0_5_39
*1359 FILLER_0_5_51
*1360 FILLER_0_5_55
*1361 FILLER_0_5_57
*1362 FILLER_0_5_69
*1363 FILLER_0_5_81
*1364 FILLER_0_5_93
*1365 FILLER_0_6_109
*1366 FILLER_0_6_121
*1367 FILLER_0_6_133
*1368 FILLER_0_6_139
*1369 FILLER_0_6_141
*1370 FILLER_0_6_15
*1371 FILLER_0_6_153
*1372 FILLER_0_6_165
*1373 FILLER_0_6_177
*1374 FILLER_0_6_189
*1375 FILLER_0_6_195
*1376 FILLER_0_6_197
*1377 FILLER_0_6_209
*1378 FILLER_0_6_221
*1379 FILLER_0_6_233
*1380 FILLER_0_6_245
*1381 FILLER_0_6_251
*1382 FILLER_0_6_253
*1383 FILLER_0_6_265
*1384 FILLER_0_6_27
*1385 FILLER_0_6_277
*1386 FILLER_0_6_289
*1387 FILLER_0_6_29
*1388 FILLER_0_6_3
*1389 FILLER_0_6_301
*1390 FILLER_0_6_307
*1391 FILLER_0_6_309
*1392 FILLER_0_6_321
*1393 FILLER_0_6_333
*1394 FILLER_0_6_41
*1395 FILLER_0_6_53
*1396 FILLER_0_6_65
*1397 FILLER_0_6_77
*1398 FILLER_0_6_83
*1399 FILLER_0_6_85
*1400 FILLER_0_6_97
*1401 FILLER_0_7_105
*1402 FILLER_0_7_111
*1403 FILLER_0_7_113
*1404 FILLER_0_7_125
*1405 FILLER_0_7_137
*1406 FILLER_0_7_149
*1407 FILLER_0_7_15
*1408 FILLER_0_7_161
*1409 FILLER_0_7_167
*1410 FILLER_0_7_169
*1411 FILLER_0_7_181
*1412 FILLER_0_7_193
*1413 FILLER_0_7_205
*1414 FILLER_0_7_217
*1415 FILLER_0_7_223
*1416 FILLER_0_7_225
*1417 FILLER_0_7_237
*1418 FILLER_0_7_249
*1419 FILLER_0_7_261
*1420 FILLER_0_7_27
*1421 FILLER_0_7_273
*1422 FILLER_0_7_279
*1423 FILLER_0_7_281
*1424 FILLER_0_7_293
*1425 FILLER_0_7_3
*1426 FILLER_0_7_305
*1427 FILLER_0_7_317
*1428 FILLER_0_7_329
*1429 FILLER_0_7_39
*1430 FILLER_0_7_51
*1431 FILLER_0_7_55
*1432 FILLER_0_7_57
*1433 FILLER_0_7_69
*1434 FILLER_0_7_81
*1435 FILLER_0_7_93
*1436 FILLER_0_8_109
*1437 FILLER_0_8_121
*1438 FILLER_0_8_133
*1439 FILLER_0_8_139
*1440 FILLER_0_8_141
*1441 FILLER_0_8_15
*1442 FILLER_0_8_153
*1443 FILLER_0_8_165
*1444 FILLER_0_8_177
*1445 FILLER_0_8_189
*1446 FILLER_0_8_195
*1447 FILLER_0_8_197
*1448 FILLER_0_8_209
*1449 FILLER_0_8_221
*1450 FILLER_0_8_233
*1451 FILLER_0_8_245
*1452 FILLER_0_8_251
*1453 FILLER_0_8_253
*1454 FILLER_0_8_265
*1455 FILLER_0_8_27
*1456 FILLER_0_8_277
*1457 FILLER_0_8_289
*1458 FILLER_0_8_29
*1459 FILLER_0_8_3
*1460 FILLER_0_8_301
*1461 FILLER_0_8_307
*1462 FILLER_0_8_309
*1463 FILLER_0_8_321