*SPEF "ieee 1481-1999"
*DESIGN "tt_um_wokwi_384437973887503361"
*DATE "10:50:37 Wednesday April 10, 2024"
*VENDOR "The OpenROAD Project"
*PROGRAM "OpenROAD"
*VERSION "0889970d1790a2617e69f253221b8bd7626e51dc"
*DESIGN_FLOW "NAME_SCOPE LOCAL" "PIN_CAP NONE"
*DIVIDER /
*DELIMITER :
*BUS_DELIMITER []
*T_UNIT 1 NS
*C_UNIT 1 PF
*R_UNIT 1 OHM
*L_UNIT 1 HENRY

*NAME_MAP
*3 clk
*4 ena
*5 rst_n
*6 ui_in[0]
*7 ui_in[1]
*8 ui_in[2]
*9 ui_in[3]
*10 ui_in[4]
*11 ui_in[5]
*12 ui_in[6]
*13 ui_in[7]
*14 uio_in[0]
*15 uio_in[1]
*16 uio_in[2]
*17 uio_in[3]
*18 uio_in[4]
*19 uio_in[5]
*20 uio_in[6]
*21 uio_in[7]
*22 net2
*23 net3
*24 net4
*25 net5
*26 net6
*27 net7
*28 net8
*29 net9
*30 net10
*31 net11
*32 net12
*33 net13
*34 net14
*35 net15
*36 net16
*37 net17
*38 uo_out[0]
*39 uo_out[1]
*40 uo_out[2]
*41 uo_out[3]
*42 uo_out[4]
*43 uo_out[5]
*44 uo_out[6]
*45 net18
*46 _00_
*47 _01_
*48 _02_
*49 _03_
*50 _04_
*51 _05_
*52 and1\.a
*53 and1\.b
*54 and10\.a
*55 and11\.b
*56 and2\.a
*57 and6\.a
*58 net1
*59 or10\.out
*60 or11\.out
*61 or13\.out
*62 or14\.out
*63 or5\.out
*64 or8\.out
*65 or9\.out
*66 FILLER_0_0_109
*67 FILLER_0_0_113
*68 FILLER_0_0_125
*69 FILLER_0_0_137
*70 FILLER_0_0_141
*71 FILLER_0_0_15
*72 FILLER_0_0_153
*73 FILLER_0_0_165
*74 FILLER_0_0_169
*75 FILLER_0_0_181
*76 FILLER_0_0_193
*77 FILLER_0_0_197
*78 FILLER_0_0_209
*79 FILLER_0_0_221
*80 FILLER_0_0_225
*81 FILLER_0_0_237
*82 FILLER_0_0_249
*83 FILLER_0_0_253
*84 FILLER_0_0_265
*85 FILLER_0_0_27
*86 FILLER_0_0_277
*87 FILLER_0_0_281
*88 FILLER_0_0_29
*89 FILLER_0_0_293
*90 FILLER_0_0_3
*91 FILLER_0_0_305
*92 FILLER_0_0_309
*93 FILLER_0_0_321
*94 FILLER_0_0_333
*95 FILLER_0_0_41
*96 FILLER_0_0_53
*97 FILLER_0_0_57
*98 FILLER_0_0_69
*99 FILLER_0_0_81
*100 FILLER_0_0_85
*101 FILLER_0_0_97
*102 FILLER_0_10_109
*103 FILLER_0_10_121
*104 FILLER_0_10_133
*105 FILLER_0_10_139
*106 FILLER_0_10_141
*107 FILLER_0_10_15
*108 FILLER_0_10_153
*109 FILLER_0_10_165
*110 FILLER_0_10_177
*111 FILLER_0_10_189
*112 FILLER_0_10_195
*113 FILLER_0_10_197
*114 FILLER_0_10_209
*115 FILLER_0_10_221
*116 FILLER_0_10_233
*117 FILLER_0_10_245
*118 FILLER_0_10_251
*119 FILLER_0_10_253
*120 FILLER_0_10_265
*121 FILLER_0_10_27
*122 FILLER_0_10_277
*123 FILLER_0_10_289
*124 FILLER_0_10_29
*125 FILLER_0_10_3
*126 FILLER_0_10_301
*127 FILLER_0_10_307
*128 FILLER_0_10_309
*129 FILLER_0_10_321
*130 FILLER_0_10_333
*131 FILLER_0_10_41
*132 FILLER_0_10_53
*133 FILLER_0_10_65
*134 FILLER_0_10_77
*135 FILLER_0_10_83
*136 FILLER_0_10_85
*137 FILLER_0_10_97
*138 FILLER_0_11_105
*139 FILLER_0_11_111
*140 FILLER_0_11_113
*141 FILLER_0_11_125
*142 FILLER_0_11_137
*143 FILLER_0_11_149
*144 FILLER_0_11_15
*145 FILLER_0_11_161
*146 FILLER_0_11_167
*147 FILLER_0_11_169
*148 FILLER_0_11_181
*149 FILLER_0_11_193
*150 FILLER_0_11_205
*151 FILLER_0_11_217
*152 FILLER_0_11_223
*153 FILLER_0_11_225
*154 FILLER_0_11_237
*155 FILLER_0_11_249
*156 FILLER_0_11_261
*157 FILLER_0_11_27
*158 FILLER_0_11_273
*159 FILLER_0_11_279
*160 FILLER_0_11_281
*161 FILLER_0_11_293
*162 FILLER_0_11_3
*163 FILLER_0_11_305
*164 FILLER_0_11_317
*165 FILLER_0_11_329
*166 FILLER_0_11_39
*167 FILLER_0_11_51
*168 FILLER_0_11_55
*169 FILLER_0_11_57
*170 FILLER_0_11_69
*171 FILLER_0_11_81
*172 FILLER_0_11_93
*173 FILLER_0_12_109
*174 FILLER_0_12_121
*175 FILLER_0_12_133
*176 FILLER_0_12_139
*177 FILLER_0_12_141
*178 FILLER_0_12_15
*179 FILLER_0_12_153
*180 FILLER_0_12_165
*181 FILLER_0_12_177
*182 FILLER_0_12_189
*183 FILLER_0_12_195
*184 FILLER_0_12_197
*185 FILLER_0_12_209
*186 FILLER_0_12_221
*187 FILLER_0_12_233
*188 FILLER_0_12_245
*189 FILLER_0_12_251
*190 FILLER_0_12_253
*191 FILLER_0_12_265
*192 FILLER_0_12_27
*193 FILLER_0_12_277
*194 FILLER_0_12_289
*195 FILLER_0_12_29
*196 FILLER_0_12_3
*197 FILLER_0_12_301
*198 FILLER_0_12_307
*199 FILLER_0_12_309
*200 FILLER_0_12_321
*201 FILLER_0_12_333
*202 FILLER_0_12_41
*203 FILLER_0_12_53
*204 FILLER_0_12_65
*205 FILLER_0_12_77
*206 FILLER_0_12_83
*207 FILLER_0_12_85
*208 FILLER_0_12_97
*209 FILLER_0_13_105
*210 FILLER_0_13_111
*211 FILLER_0_13_113
*212 FILLER_0_13_125
*213 FILLER_0_13_137
*214 FILLER_0_13_149
*215 FILLER_0_13_15
*216 FILLER_0_13_161
*217 FILLER_0_13_167
*218 FILLER_0_13_169
*219 FILLER_0_13_181
*220 FILLER_0_13_193
*221 FILLER_0_13_205
*222 FILLER_0_13_217
*223 FILLER_0_13_223
*224 FILLER_0_13_225
*225 FILLER_0_13_237
*226 FILLER_0_13_249
*227 FILLER_0_13_261
*228 FILLER_0_13_27
*229 FILLER_0_13_273
*230 FILLER_0_13_279
*231 FILLER_0_13_281
*232 FILLER_0_13_293
*233 FILLER_0_13_3
*234 FILLER_0_13_305
*235 FILLER_0_13_317
*236 FILLER_0_13_329
*237 FILLER_0_13_39
*238 FILLER_0_13_51
*239 FILLER_0_13_55
*240 FILLER_0_13_57
*241 FILLER_0_13_69
*242 FILLER_0_13_81
*243 FILLER_0_13_93
*244 FILLER_0_14_109
*245 FILLER_0_14_121
*246 FILLER_0_14_133
*247 FILLER_0_14_139
*248 FILLER_0_14_141
*249 FILLER_0_14_15
*250 FILLER_0_14_153
*251 FILLER_0_14_165
*252 FILLER_0_14_177
*253 FILLER_0_14_189
*254 FILLER_0_14_195
*255 FILLER_0_14_197
*256 FILLER_0_14_209
*257 FILLER_0_14_221
*258 FILLER_0_14_233
*259 FILLER_0_14_245
*260 FILLER_0_14_251
*261 FILLER_0_14_253
*262 FILLER_0_14_265
*263 FILLER_0_14_27
*264 FILLER_0_14_277
*265 FILLER_0_14_289
*266 FILLER_0_14_29
*267 FILLER_0_14_3
*268 FILLER_0_14_301
*269 FILLER_0_14_307
*270 FILLER_0_14_309
*271 FILLER_0_14_321
*272 FILLER_0_14_333
*273 FILLER_0_14_41
*274 FILLER_0_14_53
*275 FILLER_0_14_65
*276 FILLER_0_14_77
*277 FILLER_0_14_83
*278 FILLER_0_14_85
*279 FILLER_0_14_97
*280 FILLER_0_15_105
*281 FILLER_0_15_111
*282 FILLER_0_15_113
*283 FILLER_0_15_125
*284 FILLER_0_15_137
*285 FILLER_0_15_149
*286 FILLER_0_15_15
*287 FILLER_0_15_161
*288 FILLER_0_15_167
*289 FILLER_0_15_169
*290 FILLER_0_15_181
*291 FILLER_0_15_193
*292 FILLER_0_15_205
*293 FILLER_0_15_217
*294 FILLER_0_15_223
*295 FILLER_0_15_225
*296 FILLER_0_15_237
*297 FILLER_0_15_249
*298 FILLER_0_15_261
*299 FILLER_0_15_27
*300 FILLER_0_15_273
*301 FILLER_0_15_279
*302 FILLER_0_15_281
*303 FILLER_0_15_293
*304 FILLER_0_15_3
*305 FILLER_0_15_305
*306 FILLER_0_15_317
*307 FILLER_0_15_329
*308 FILLER_0_15_39
*309 FILLER_0_15_51
*310 FILLER_0_15_55
*311 FILLER_0_15_57
*312 FILLER_0_15_69
*313 FILLER_0_15_81
*314 FILLER_0_15_93
*315 FILLER_0_16_109
*316 FILLER_0_16_121
*317 FILLER_0_16_133
*318 FILLER_0_16_139
*319 FILLER_0_16_141
*320 FILLER_0_16_15
*321 FILLER_0_16_153
*322 FILLER_0_16_165
*323 FILLER_0_16_177
*324 FILLER_0_16_189
*325 FILLER_0_16_195
*326 FILLER_0_16_197
*327 FILLER_0_16_209
*328 FILLER_0_16_221
*329 FILLER_0_16_233
*330 FILLER_0_16_245
*331 FILLER_0_16_251
*332 FILLER_0_16_253
*333 FILLER_0_16_265
*334 FILLER_0_16_27
*335 FILLER_0_16_277
*336 FILLER_0_16_289
*337 FILLER_0_16_29
*338 FILLER_0_16_3
*339 FILLER_0_16_301
*340 FILLER_0_16_307
*341 FILLER_0_16_309
*342 FILLER_0_16_321
*343 FILLER_0_16_333
*344 FILLER_0_16_41
*345 FILLER_0_16_53
*346 FILLER_0_16_65
*347 FILLER_0_16_77
*348 FILLER_0_16_83
*349 FILLER_0_16_85
*350 FILLER_0_16_97
*351 FILLER_0_17_105
*352 FILLER_0_17_111
*353 FILLER_0_17_113
*354 FILLER_0_17_125
*355 FILLER_0_17_137
*356 FILLER_0_17_149
*357 FILLER_0_17_15
*358 FILLER_0_17_161
*359 FILLER_0_17_167
*360 FILLER_0_17_169
*361 FILLER_0_17_181
*362 FILLER_0_17_193
*363 FILLER_0_17_205
*364 FILLER_0_17_217
*365 FILLER_0_17_223
*366 FILLER_0_17_225
*367 FILLER_0_17_237
*368 FILLER_0_17_249
*369 FILLER_0_17_261
*370 FILLER_0_17_27
*371 FILLER_0_17_273
*372 FILLER_0_17_279
*373 FILLER_0_17_281
*374 FILLER_0_17_293
*375 FILLER_0_17_3
*376 FILLER_0_17_305
*377 FILLER_0_17_317
*378 FILLER_0_17_329
*379 FILLER_0_17_39
*380 FILLER_0_17_51
*381 FILLER_0_17_55
*382 FILLER_0_17_57
*383 FILLER_0_17_69
*384 FILLER_0_17_81
*385 FILLER_0_17_93
*386 FILLER_0_18_109
*387 FILLER_0_18_121
*388 FILLER_0_18_133
*389 FILLER_0_18_139
*390 FILLER_0_18_141
*391 FILLER_0_18_15
*392 FILLER_0_18_153
*393 FILLER_0_18_165
*394 FILLER_0_18_177
*395 FILLER_0_18_189
*396 FILLER_0_18_195
*397 FILLER_0_18_197
*398 FILLER_0_18_209
*399 FILLER_0_18_221
*400 FILLER_0_18_233
*401 FILLER_0_18_245
*402 FILLER_0_18_251
*403 FILLER_0_18_253
*404 FILLER_0_18_265
*405 FILLER_0_18_27
*406 FILLER_0_18_277
*407 FILLER_0_18_289
*408 FILLER_0_18_29
*409 FILLER_0_18_3
*410 FILLER_0_18_301
*411 FILLER_0_18_307
*412 FILLER_0_18_309
*413 FILLER_0_18_321
*414 FILLER_0_18_333
*415 FILLER_0_18_41
*416 FILLER_0_18_53
*417 FILLER_0_18_65
*418 FILLER_0_18_77
*419 FILLER_0_18_83
*420 FILLER_0_18_85
*421 FILLER_0_18_97
*422 FILLER_0_19_105
*423 FILLER_0_19_111
*424 FILLER_0_19_113
*425 FILLER_0_19_125
*426 FILLER_0_19_137
*427 FILLER_0_19_149
*428 FILLER_0_19_15
*429 FILLER_0_19_161
*430 FILLER_0_19_167
*431 FILLER_0_19_169
*432 FILLER_0_19_181
*433 FILLER_0_19_193
*434 FILLER_0_19_205
*435 FILLER_0_19_217
*436 FILLER_0_19_223
*437 FILLER_0_19_225
*438 FILLER_0_19_237
*439 FILLER_0_19_249
*440 FILLER_0_19_261
*441 FILLER_0_19_27
*442 FILLER_0_19_273
*443 FILLER_0_19_279
*444 FILLER_0_19_281
*445 FILLER_0_19_293
*446 FILLER_0_19_3
*447 FILLER_0_19_305
*448 FILLER_0_19_317
*449 FILLER_0_19_329
*450 FILLER_0_19_39
*451 FILLER_0_19_51
*452 FILLER_0_19_55
*453 FILLER_0_19_57
*454 FILLER_0_19_69
*455 FILLER_0_19_81
*456 FILLER_0_19_93
*457 FILLER_0_1_105
*458 FILLER_0_1_111
*459 FILLER_0_1_113
*460 FILLER_0_1_125
*461 FILLER_0_1_137
*462 FILLER_0_1_149
*463 FILLER_0_1_15
*464 FILLER_0_1_161
*465 FILLER_0_1_167
*466 FILLER_0_1_169
*467 FILLER_0_1_181
*468 FILLER_0_1_193
*469 FILLER_0_1_205
*470 FILLER_0_1_217
*471 FILLER_0_1_223
*472 FILLER_0_1_225
*473 FILLER_0_1_237
*474 FILLER_0_1_249
*475 FILLER_0_1_261
*476 FILLER_0_1_27
*477 FILLER_0_1_273
*478 FILLER_0_1_279
*479 FILLER_0_1_281
*480 FILLER_0_1_293
*481 FILLER_0_1_3
*482 FILLER_0_1_305
*483 FILLER_0_1_317
*484 FILLER_0_1_329
*485 FILLER_0_1_39
*486 FILLER_0_1_51
*487 FILLER_0_1_55
*488 FILLER_0_1_57
*489 FILLER_0_1_69
*490 FILLER_0_1_81
*491 FILLER_0_1_93
*492 FILLER_0_20_109
*493 FILLER_0_20_121
*494 FILLER_0_20_133
*495 FILLER_0_20_139
*496 FILLER_0_20_141
*497 FILLER_0_20_15
*498 FILLER_0_20_153
*499 FILLER_0_20_165
*500 FILLER_0_20_177
*501 FILLER_0_20_189
*502 FILLER_0_20_195
*503 FILLER_0_20_197
*504 FILLER_0_20_209
*505 FILLER_0_20_221
*506 FILLER_0_20_233
*507 FILLER_0_20_245
*508 FILLER_0_20_251
*509 FILLER_0_20_253
*510 FILLER_0_20_265
*511 FILLER_0_20_27
*512 FILLER_0_20_277
*513 FILLER_0_20_289
*514 FILLER_0_20_29
*515 FILLER_0_20_3
*516 FILLER_0_20_301
*517 FILLER_0_20_307
*518 FILLER_0_20_309
*519 FILLER_0_20_321
*520 FILLER_0_20_333
*521 FILLER_0_20_41
*522 FILLER_0_20_53
*523 FILLER_0_20_65
*524 FILLER_0_20_77
*525 FILLER_0_20_83
*526 FILLER_0_20_85
*527 FILLER_0_20_97
*528 FILLER_0_21_105
*529 FILLER_0_21_111
*530 FILLER_0_21_113
*531 FILLER_0_21_125
*532 FILLER_0_21_137
*533 FILLER_0_21_149
*534 FILLER_0_21_15
*535 FILLER_0_21_161
*536 FILLER_0_21_167
*537 FILLER_0_21_169
*538 FILLER_0_21_181
*539 FILLER_0_21_193
*540 FILLER_0_21_205
*541 FILLER_0_21_217
*542 FILLER_0_21_223
*543 FILLER_0_21_225
*544 FILLER_0_21_237
*545 FILLER_0_21_249
*546 FILLER_0_21_261
*547 FILLER_0_21_27
*548 FILLER_0_21_273
*549 FILLER_0_21_279
*550 FILLER_0_21_281
*551 FILLER_0_21_293
*552 FILLER_0_21_3
*553 FILLER_0_21_305
*554 FILLER_0_21_317
*555 FILLER_0_21_329
*556 FILLER_0_21_39
*557 FILLER_0_21_51
*558 FILLER_0_21_55
*559 FILLER_0_21_57
*560 FILLER_0_21_69
*561 FILLER_0_21_81
*562 FILLER_0_21_93
*563 FILLER_0_22_109
*564 FILLER_0_22_121
*565 FILLER_0_22_133
*566 FILLER_0_22_139
*567 FILLER_0_22_141
*568 FILLER_0_22_15
*569 FILLER_0_22_153
*570 FILLER_0_22_165
*571 FILLER_0_22_177
*572 FILLER_0_22_189
*573 FILLER_0_22_195
*574 FILLER_0_22_197
*575 FILLER_0_22_209
*576 FILLER_0_22_221
*577 FILLER_0_22_233
*578 FILLER_0_22_245
*579 FILLER_0_22_251
*580 FILLER_0_22_253
*581 FILLER_0_22_265
*582 FILLER_0_22_27
*583 FILLER_0_22_277
*584 FILLER_0_22_289
*585 FILLER_0_22_29
*586 FILLER_0_22_3
*587 FILLER_0_22_301
*588 FILLER_0_22_307
*589 FILLER_0_22_309
*590 FILLER_0_22_321
*591 FILLER_0_22_333
*592 FILLER_0_22_41
*593 FILLER_0_22_53
*594 FILLER_0_22_65
*595 FILLER_0_22_77
*596 FILLER_0_22_83
*597 FILLER_0_22_85
*598 FILLER_0_22_97
*599 FILLER_0_23_105
*600 FILLER_0_23_111
*601 FILLER_0_23_113
*602 FILLER_0_23_125
*603 FILLER_0_23_137
*604 FILLER_0_23_149
*605 FILLER_0_23_15
*606 FILLER_0_23_161
*607 FILLER_0_23_167
*608 FILLER_0_23_169
*609 FILLER_0_23_181
*610 FILLER_0_23_193
*611 FILLER_0_23_205
*612 FILLER_0_23_217
*613 FILLER_0_23_223
*614 FILLER_0_23_225
*615 FILLER_0_23_237
*616 FILLER_0_23_249
*617 FILLER_0_23_261
*618 FILLER_0_23_27
*619 FILLER_0_23_273
*620 FILLER_0_23_279
*621 FILLER_0_23_281
*622 FILLER_0_23_293
*623 FILLER_0_23_3
*624 FILLER_0_23_305
*625 FILLER_0_23_317
*626 FILLER_0_23_329
*627 FILLER_0_23_39
*628 FILLER_0_23_51
*629 FILLER_0_23_55
*630 FILLER_0_23_57
*631 FILLER_0_23_69
*632 FILLER_0_23_81
*633 FILLER_0_23_93
*634 FILLER_0_24_109
*635 FILLER_0_24_121
*636 FILLER_0_24_133
*637 FILLER_0_24_139
*638 FILLER_0_24_141
*639 FILLER_0_24_15
*640 FILLER_0_24_153
*641 FILLER_0_24_165
*642 FILLER_0_24_177
*643 FILLER_0_24_189
*644 FILLER_0_24_195
*645 FILLER_0_24_197
*646 FILLER_0_24_209
*647 FILLER_0_24_221
*648 FILLER_0_24_233
*649 FILLER_0_24_245
*650 FILLER_0_24_251
*651 FILLER_0_24_253
*652 FILLER_0_24_265
*653 FILLER_0_24_27
*654 FILLER_0_24_277
*655 FILLER_0_24_289
*656 FILLER_0_24_29
*657 FILLER_0_24_3
*658 FILLER_0_24_301
*659 FILLER_0_24_307
*660 FILLER_0_24_309
*661 FILLER_0_24_321
*662 FILLER_0_24_333
*663 FILLER_0_24_41
*664 FILLER_0_24_53
*665 FILLER_0_24_65
*666 FILLER_0_24_77
*667 FILLER_0_24_83
*668 FILLER_0_24_85
*669 FILLER_0_24_97
*670 FILLER_0_25_105
*671 FILLER_0_25_111
*672 FILLER_0_25_113
*673 FILLER_0_25_125
*674 FILLER_0_25_137
*675 FILLER_0_25_149
*676 FILLER_0_25_15
*677 FILLER_0_25_161
*678 FILLER_0_25_167
*679 FILLER_0_25_169
*680 FILLER_0_25_181
*681 FILLER_0_25_193
*682 FILLER_0_25_205
*683 FILLER_0_25_217
*684 FILLER_0_25_223
*685 FILLER_0_25_225
*686 FILLER_0_25_237
*687 FILLER_0_25_249
*688 FILLER_0_25_261
*689 FILLER_0_25_27
*690 FILLER_0_25_273
*691 FILLER_0_25_279
*692 FILLER_0_25_281
*693 FILLER_0_25_293
*694 FILLER_0_25_3
*695 FILLER_0_25_305
*696 FILLER_0_25_317
*697 FILLER_0_25_329
*698 FILLER_0_25_39
*699 FILLER_0_25_51
*700 FILLER_0_25_55
*701 FILLER_0_25_57
*702 FILLER_0_25_69
*703 FILLER_0_25_81
*704 FILLER_0_25_93
*705 FILLER_0_26_109
*706 FILLER_0_26_121
*707 FILLER_0_26_133
*708 FILLER_0_26_139
*709 FILLER_0_26_141
*710 FILLER_0_26_15
*711 FILLER_0_26_153
*712 FILLER_0_26_165
*713 FILLER_0_26_177
*714 FILLER_0_26_189
*715 FILLER_0_26_195
*716 FILLER_0_26_197
*717 FILLER_0_26_209
*718 FILLER_0_26_221
*719 FILLER_0_26_233
*720 FILLER_0_26_245
*721 FILLER_0_26_251
*722 FILLER_0_26_253
*723 FILLER_0_26_265
*724 FILLER_0_26_27
*725 FILLER_0_26_277
*726 FILLER_0_26_289
*727 FILLER_0_26_29
*728 FILLER_0_26_3
*729 FILLER_0_26_301
*730 FILLER_0_26_307
*731 FILLER_0_26_309
*732 FILLER_0_26_321
*733 FILLER_0_26_333
*734 FILLER_0_26_41
*735 FILLER_0_26_53
*736 FILLER_0_26_65
*737 FILLER_0_26_77
*738 FILLER_0_26_83
*739 FILLER_0_26_85
*740 FILLER_0_26_97
*741 FILLER_0_27_105
*742 FILLER_0_27_111
*743 FILLER_0_27_113
*744 FILLER_0_27_125
*745 FILLER_0_27_137
*746 FILLER_0_27_149
*747 FILLER_0_27_15
*748 FILLER_0_27_161
*749 FILLER_0_27_167
*750 FILLER_0_27_169
*751 FILLER_0_27_181
*752 FILLER_0_27_193
*753 FILLER_0_27_205
*754 FILLER_0_27_217
*755 FILLER_0_27_223
*756 FILLER_0_27_225
*757 FILLER_0_27_237
*758 FILLER_0_27_249
*759 FILLER_0_27_261
*760 FILLER_0_27_27
*761 FILLER_0_27_273
*762 FILLER_0_27_279
*763 FILLER_0_27_281
*764 FILLER_0_27_293
*765 FILLER_0_27_3
*766 FILLER_0_27_305
*767 FILLER_0_27_317
*768 FILLER_0_27_329
*769 FILLER_0_27_39
*770 FILLER_0_27_51
*771 FILLER_0_27_55
*772 FILLER_0_27_57
*773 FILLER_0_27_69
*774 FILLER_0_27_81
*775 FILLER_0_27_93
*776 FILLER_0_28_109
*777 FILLER_0_28_121
*778 FILLER_0_28_133
*779 FILLER_0_28_139
*780 FILLER_0_28_141
*781 FILLER_0_28_15
*782 FILLER_0_28_153
*783 FILLER_0_28_165
*784 FILLER_0_28_177
*785 FILLER_0_28_189
*786 FILLER_0_28_195
*787 FILLER_0_28_197
*788 FILLER_0_28_209
*789 FILLER_0_28_221
*790 FILLER_0_28_233
*791 FILLER_0_28_245
*792 FILLER_0_28_251
*793 FILLER_0_28_253
*794 FILLER_0_28_265
*795 FILLER_0_28_27
*796 FILLER_0_28_277
*797 FILLER_0_28_289
*798 FILLER_0_28_29
*799 FILLER_0_28_3
*800 FILLER_0_28_301
*801 FILLER_0_28_307
*802 FILLER_0_28_309
*803 FILLER_0_28_321
*804 FILLER_0_28_333
*805 FILLER_0_28_41
*806 FILLER_0_28_53
*807 FILLER_0_28_65
*808 FILLER_0_28_77
*809 FILLER_0_28_83
*810 FILLER_0_28_85
*811 FILLER_0_28_97
*812 FILLER_0_29_105
*813 FILLER_0_29_111
*814 FILLER_0_29_113
*815 FILLER_0_29_125
*816 FILLER_0_29_137
*817 FILLER_0_29_149
*818 FILLER_0_29_15
*819 FILLER_0_29_161
*820 FILLER_0_29_167
*821 FILLER_0_29_169
*822 FILLER_0_29_181
*823 FILLER_0_29_193
*824 FILLER_0_29_205
*825 FILLER_0_29_217
*826 FILLER_0_29_223
*827 FILLER_0_29_225
*828 FILLER_0_29_237
*829 FILLER_0_29_249
*830 FILLER_0_29_261
*831 FILLER_0_29_27
*832 FILLER_0_29_273
*833 FILLER_0_29_279
*834 FILLER_0_29_281
*835 FILLER_0_29_293
*836 FILLER_0_29_3
*837 FILLER_0_29_305
*838 FILLER_0_29_317
*839 FILLER_0_29_329
*840 FILLER_0_29_39
*841 FILLER_0_29_51
*842 FILLER_0_29_55
*843 FILLER_0_29_57
*844 FILLER_0_29_69
*845 FILLER_0_29_81
*846 FILLER_0_29_93
*847 FILLER_0_2_109
*848 FILLER_0_2_121
*849 FILLER_0_2_133
*850 FILLER_0_2_139
*851 FILLER_0_2_141
*852 FILLER_0_2_15
*853 FILLER_0_2_153
*854 FILLER_0_2_165
*855 FILLER_0_2_177
*856 FILLER_0_2_189
*857 FILLER_0_2_195
*858 FILLER_0_2_197
*859 FILLER_0_2_209
*860 FILLER_0_2_221
*861 FILLER_0_2_233
*862 FILLER_0_2_245
*863 FILLER_0_2_251
*864 FILLER_0_2_253
*865 FILLER_0_2_265
*866 FILLER_0_2_27
*867 FILLER_0_2_277
*868 FILLER_0_2_289
*869 FILLER_0_2_29
*870 FILLER_0_2_3
*871 FILLER_0_2_301
*872 FILLER_0_2_307
*873 FILLER_0_2_309
*874 FILLER_0_2_321
*875 FILLER_0_2_333
*876 FILLER_0_2_41
*877 FILLER_0_2_53
*878 FILLER_0_2_65
*879 FILLER_0_2_77
*880 FILLER_0_2_83
*881 FILLER_0_2_85
*882 FILLER_0_2_97
*883 FILLER_0_30_109
*884 FILLER_0_30_121
*885 FILLER_0_30_133
*886 FILLER_0_30_139
*887 FILLER_0_30_141
*888 FILLER_0_30_15
*889 FILLER_0_30_153
*890 FILLER_0_30_165
*891 FILLER_0_30_177
*892 FILLER_0_30_189
*893 FILLER_0_30_195
*894 FILLER_0_30_197
*895 FILLER_0_30_209
*896 FILLER_0_30_221
*897 FILLER_0_30_233
*898 FILLER_0_30_245
*899 FILLER_0_30_251
*900 FILLER_0_30_253
*901 FILLER_0_30_265
*902 FILLER_0_30_27
*903 FILLER_0_30_277
*904 FILLER_0_30_289
*905 FILLER_0_30_29
*906 FILLER_0_30_3
*907 FILLER_0_30_301
*908 FILLER_0_30_307
*909 FILLER_0_30_309
*910 FILLER_0_30_321
*911 FILLER_0_30_333
*912 FILLER_0_30_41
*913 FILLER_0_30_53
*914 FILLER_0_30_65
*915 FILLER_0_30_77
*916 FILLER_0_30_83
*917 FILLER_0_30_85
*918 FILLER_0_30_97
*919 FILLER_0_31_105
*920 FILLER_0_31_111
*921 FILLER_0_31_113
*922 FILLER_0_31_125
*923 FILLER_0_31_137
*924 FILLER_0_31_149
*925 FILLER_0_31_15
*926 FILLER_0_31_161
*927 FILLER_0_31_167
*928 FILLER_0_31_169
*929 FILLER_0_31_181
*930 FILLER_0_31_193
*931 FILLER_0_31_205
*932 FILLER_0_31_217
*933 FILLER_0_31_223
*934 FILLER_0_31_225
*935 FILLER_0_31_237
*936 FILLER_0_31_249
*937 FILLER_0_31_261
*938 FILLER_0_31_27
*939 FILLER_0_31_273
*940 FILLER_0_31_279
*941 FILLER_0_31_281
*942 FILLER_0_31_293
*943 FILLER_0_31_3
*944 FILLER_0_31_305
*945 FILLER_0_31_317
*946 FILLER_0_31_329
*947 FILLER_0_31_39
*948 FILLER_0_31_51
*949 FILLER_0_31_55
*950 FILLER_0_31_57
*951 FILLER_0_31_69
*952 FILLER_0_31_81
*953 FILLER_0_31_93
*954 FILLER_0_32_109
*955 FILLER_0_32_121
*956 FILLER_0_32_133
*957 FILLER_0_32_139
*958 FILLER_0_32_141
*959 FILLER_0_32_15
*960 FILLER_0_32_153
*961 FILLER_0_32_165
*962 FILLER_0_32_177
*963 FILLER_0_32_189
*964 FILLER_0_32_195
*965 FILLER_0_32_197
*966 FILLER_0_32_209
*967 FILLER_0_32_221
*968 FILLER_0_32_233
*969 FILLER_0_32_245
*970 FILLER_0_32_251
*971 FILLER_0_32_253
*972 FILLER_0_32_265
*973 FILLER_0_32_27
*974 FILLER_0_32_277
*975 FILLER_0_32_289
*976 FILLER_0_32_29
*977 FILLER_0_32_3
*978 FILLER_0_32_301
*979 FILLER_0_32_307
*980 FILLER_0_32_309
*981 FILLER_0_32_321
*982 FILLER_0_32_333
*983 FILLER_0_32_41
*984 FILLER_0_32_53
*985 FILLER_0_32_65
*986 FILLER_0_32_77
*987 FILLER_0_32_83
*988 FILLER_0_32_85
*989 FILLER_0_32_97
*990 FILLER_0_33_105
*991 FILLER_0_33_111
*992 FILLER_0_33_113
*993 FILLER_0_33_125
*994 FILLER_0_33_137
*995 FILLER_0_33_149
*996 FILLER_0_33_15
*997 FILLER_0_33_161
*998 FILLER_0_33_167
*999 FILLER_0_33_169
*1000 FILLER_0_33_181
*1001 FILLER_0_33_193
*1002 FILLER_0_33_205
*1003 FILLER_0_33_217
*1004 FILLER_0_33_223
*1005 FILLER_0_33_225
*1006 FILLER_0_33_237
*1007 FILLER_0_33_249
*1008 FILLER_0_33_261
*1009 FILLER_0_33_27
*1010 FILLER_0_33_273
*1011 FILLER_0_33_279
*1012 FILLER_0_33_281
*1013 FILLER_0_33_293
*1014 FILLER_0_33_3
*1015 FILLER_0_33_305
*1016 FILLER_0_33_317
*1017 FILLER_0_33_329
*1018 FILLER_0_33_39
*1019 FILLER_0_33_51
*1020 FILLER_0_33_55
*1021 FILLER_0_33_57
*1022 FILLER_0_33_69
*1023 FILLER_0_33_81
*1024 FILLER_0_33_93
*1025 FILLER_0_34_109
*1026 FILLER_0_34_121
*1027 FILLER_0_34_133
*1028 FILLER_0_34_139
*1029 FILLER_0_34_141
*1030 FILLER_0_34_15
*1031 FILLER_0_34_153
*1032 FILLER_0_34_165
*1033 FILLER_0_34_177
*1034 FILLER_0_34_189
*1035 FILLER_0_34_195
*1036 FILLER_0_34_197
*1037 FILLER_0_34_209
*1038 FILLER_0_34_221
*1039 FILLER_0_34_233
*1040 FILLER_0_34_245
*1041 FILLER_0_34_251
*1042 FILLER_0_34_253
*1043 FILLER_0_34_265
*1044 FILLER_0_34_27
*1045 FILLER_0_34_277
*1046 FILLER_0_34_289
*1047 FILLER_0_34_29
*1048 FILLER_0_34_3
*1049 FILLER_0_34_301
*1050 FILLER_0_34_307
*1051 FILLER_0_34_309
*1052 FILLER_0_34_321
*1053 FILLER_0_34_333
*1054 FILLER_0_34_41
*1055 FILLER_0_34_53
*1056 FILLER_0_34_65
*1057 FILLER_0_34_77
*1058 FILLER_0_34_83
*1059 FILLER_0_34_85
*1060 FILLER_0_34_97
*1061 FILLER_0_35_105
*1062 FILLER_0_35_111
*1063 FILLER_0_35_113
*1064 FILLER_0_35_125
*1065 FILLER_0_35_137
*1066 FILLER_0_35_149
*1067 FILLER_0_35_15
*1068 FILLER_0_35_161
*1069 FILLER_0_35_167
*1070 FILLER_0_35_169
*1071 FILLER_0_35_173
*1072 FILLER_0_35_191
*1073 FILLER_0_35_203
*1074 FILLER_0_35_215
*1075 FILLER_0_35_223
*1076 FILLER_0_35_225
*1077 FILLER_0_35_237
*1078 FILLER_0_35_249
*1079 FILLER_0_35_261
*1080 FILLER_0_35_27
*1081 FILLER_0_35_273
*1082 FILLER_0_35_279
*1083 FILLER_0_35_281
*1084 FILLER_0_35_293
*1085 FILLER_0_35_3
*1086 FILLER_0_35_305
*1087 FILLER_0_35_317
*1088 FILLER_0_35_329
*1089 FILLER_0_35_39
*1090 FILLER_0_35_51
*1091 FILLER_0_35_55
*1092 FILLER_0_35_57
*1093 FILLER_0_35_69
*1094 FILLER_0_35_81
*1095 FILLER_0_35_93
*1096 FILLER_0_36_109
*1097 FILLER_0_36_121
*1098 FILLER_0_36_133
*1099 FILLER_0_36_139
*1100 FILLER_0_36_141
*1101 FILLER_0_36_145
*1102 FILLER_0_36_15
*1103 FILLER_0_36_158
*1104 FILLER_0_36_162
*1105 FILLER_0_36_170
*1106 FILLER_0_36_181
*1107 FILLER_0_36_189
*1108 FILLER_0_36_194
*1109 FILLER_0_36_214
*1110 FILLER_0_36_226
*1111 FILLER_0_36_238
*1112 FILLER_0_36_250
*1113 FILLER_0_36_253
*1114 FILLER_0_36_265
*1115 FILLER_0_36_27
*1116 FILLER_0_36_277
*1117 FILLER_0_36_289
*1118 FILLER_0_36_29
*1119 FILLER_0_36_3
*1120 FILLER_0_36_301
*1121 FILLER_0_36_307
*1122 FILLER_0_36_309
*1123 FILLER_0_36_321
*1124 FILLER_0_36_333
*1125 FILLER_0_36_41
*1126 FILLER_0_36_53
*1127 FILLER_0_36_65
*1128 FILLER_0_36_77
*1129 FILLER_0_36_83
*1130 FILLER_0_36_85
*1131 FILLER_0_36_97
*1132 FILLER_0_37_105
*1133 FILLER_0_37_111
*1134 FILLER_0_37_113
*1135 FILLER_0_37_125
*1136 FILLER_0_37_137
*1137 FILLER_0_37_141
*1138 FILLER_0_37_15
*1139 FILLER_0_37_155
*1140 FILLER_0_37_163
*1141 FILLER_0_37_167
*1142 FILLER_0_37_186
*1143 FILLER_0_37_194
*1144 FILLER_0_37_200
*1145 FILLER_0_37_212
*1146 FILLER_0_37_225
*1147 FILLER_0_37_237
*1148 FILLER_0_37_249
*1149 FILLER_0_37_261
*1150 FILLER_0_37_27
*1151 FILLER_0_37_273
*1152 FILLER_0_37_279
*1153 FILLER_0_37_281
*1154 FILLER_0_37_293
*1155 FILLER_0_37_3
*1156 FILLER_0_37_305
*1157 FILLER_0_37_317
*1158 FILLER_0_37_329
*1159 FILLER_0_37_39
*1160 FILLER_0_37_51
*1161 FILLER_0_37_55
*1162 FILLER_0_37_57
*1163 FILLER_0_37_69
*1164 FILLER_0_37_81
*1165 FILLER_0_37_93
*1166 FILLER_0_38_10
*1167 FILLER_0_38_102
*1168 FILLER_0_38_106
*1169 FILLER_0_38_110
*1170 FILLER_0_38_113
*1171 FILLER_0_38_118
*1172 FILLER_0_38_122
*1173 FILLER_0_38_126
*1174 FILLER_0_38_130
*1175 FILLER_0_38_134
*1176 FILLER_0_38_14
*1177 FILLER_0_38_149
*1178 FILLER_0_38_154
*1179 FILLER_0_38_164
*1180 FILLER_0_38_169
*1181 FILLER_0_38_176
*1182 FILLER_0_38_18
*1183 FILLER_0_38_187
*1184 FILLER_0_38_195
*1185 FILLER_0_38_197
*1186 FILLER_0_38_214
*1187 FILLER_0_38_22
*1188 FILLER_0_38_222
*1189 FILLER_0_38_225
*1190 FILLER_0_38_237
*1191 FILLER_0_38_249
*1192 FILLER_0_38_253
*1193 FILLER_0_38_265
*1194 FILLER_0_38_277
*1195 FILLER_0_38_281
*1196 FILLER_0_38_293
*1197 FILLER_0_38_305
*1198 FILLER_0_38_309
*1199 FILLER_0_38_318
*1200 FILLER_0_38_32
*1201 FILLER_0_38_330
*1202 FILLER_0_38_334
*1203 FILLER_0_38_38
*1204 FILLER_0_38_42
*1205 FILLER_0_38_46
*1206 FILLER_0_38_50
*1207 FILLER_0_38_54
*1208 FILLER_0_38_57
*1209 FILLER_0_38_6
*1210 FILLER_0_38_62
*1211 FILLER_0_38_66
*1212 FILLER_0_38_70
*1213 FILLER_0_38_74
*1214 FILLER_0_38_78
*1215 FILLER_0_38_88
*1216 FILLER_0_38_94
*1217 FILLER_0_38_98
*1218 FILLER_0_3_105
*1219 FILLER_0_3_111
*1220 FILLER_0_3_113
*1221 FILLER_0_3_125
*1222 FILLER_0_3_137
*1223 FILLER_0_3_149
*1224 FILLER_0_3_15
*1225 FILLER_0_3_161
*1226 FILLER_0_3_167
*1227 FILLER_0_3_169
*1228 FILLER_0_3_181
*1229 FILLER_0_3_193
*1230 FILLER_0_3_205
*1231 FILLER_0_3_217
*1232 FILLER_0_3_223
*1233 FILLER_0_3_225
*1234 FILLER_0_3_237
*1235 FILLER_0_3_249
*1236 FILLER_0_3_261
*1237 FILLER_0_3_27
*1238 FILLER_0_3_273
*1239 FILLER_0_3_279
*1240 FILLER_0_3_281
*1241 FILLER_0_3_293
*1242 FILLER_0_3_3
*1243 FILLER_0_3_305
*1244 FILLER_0_3_317
*1245 FILLER_0_3_329
*1246 FILLER_0_3_39
*1247 FILLER_0_3_51
*1248 FILLER_0_3_55
*1249 FILLER_0_3_57
*1250 FILLER_0_3_69
*1251 FILLER_0_3_81
*1252 FILLER_0_3_93
*1253 FILLER_0_4_109
*1254 FILLER_0_4_121
*1255 FILLER_0_4_133
*1256 FILLER_0_4_139
*1257 FILLER_0_4_141
*1258 FILLER_0_4_15
*1259 FILLER_0_4_153
*1260 FILLER_0_4_165
*1261 FILLER_0_4_177
*1262 FILLER_0_4_189
*1263 FILLER_0_4_195
*1264 FILLER_0_4_197
*1265 FILLER_0_4_209
*1266 FILLER_0_4_221
*1267 FILLER_0_4_233
*1268 FILLER_0_4_245
*1269 FILLER_0_4_251
*1270 FILLER_0_4_253
*1271 FILLER_0_4_265
*1272 FILLER_0_4_27
*1273 FILLER_0_4_277
*1274 FILLER_0_4_289
*1275 FILLER_0_4_29
*1276 FILLER_0_4_3
*1277 FILLER_0_4_301
*1278 FILLER_0_4_307
*1279 FILLER_0_4_309
*1280 FILLER_0_4_321
*1281 FILLER_0_4_333
*1282 FILLER_0_4_41
*1283 FILLER_0_4_53
*1284 FILLER_0_4_65
*1285 FILLER_0_4_77
*1286 FILLER_0_4_83
*1287 FILLER_0_4_85
*1288 FILLER_0_4_97
*1289 FILLER_0_5_105
*1290 FILLER_0_5_111
*1291 FILLER_0_5_113
*1292 FILLER_0_5_125
*1293 FILLER_0_5_137
*1294 FILLER_0_5_149
*1295 FILLER_0_5_15
*1296 FILLER_0_5_161
*1297 FILLER_0_5_167
*1298 FILLER_0_5_169
*1299 FILLER_0_5_181
*1300 FILLER_0_5_193
*1301 FILLER_0_5_205
*1302 FILLER_0_5_217
*1303 FILLER_0_5_223
*1304 FILLER_0_5_225
*1305 FILLER_0_5_237
*1306 FILLER_0_5_249
*1307 FILLER_0_5_261
*1308 FILLER_0_5_27
*1309 FILLER_0_5_273
*1310 FILLER_0_5_279
*1311 FILLER_0_5_281
*1312 FILLER_0_5_293
*1313 FILLER_0_5_3
*1314 FILLER_0_5_305
*1315 FILLER_0_5_317
*1316 FILLER_0_5_329
*1317 FILLER_0_5_39
*1318 FILLER_0_5_51
*1319 FILLER_0_5_55
*1320 FILLER_0_5_57
*1321 FILLER_0_5_69
*1322 FILLER_0_5_81
*1323 FILLER_0_5_93
*1324 FILLER_0_6_109
*1325 FILLER_0_6_121
*1326 FILLER_0_6_133
*1327 FILLER_0_6_139
*1328 FILLER_0_6_141
*1329 FILLER_0_6_15
*1330 FILLER_0_6_153
*1331 FILLER_0_6_165
*1332 FILLER_0_6_177
*1333 FILLER_0_6_189
*1334 FILLER_0_6_195
*1335 FILLER_0_6_197
*1336 FILLER_0_6_209
*1337 FILLER_0_6_221
*1338 FILLER_0_6_233
*1339 FILLER_0_6_245
*1340 FILLER_0_6_251
*1341 FILLER_0_6_253
*1342 FILLER_0_6_265
*1343 FILLER_0_6_27
*1344 FILLER_0_6_277
*1345 FILLER_0_6_289
*1346 FILLER_0_6_29
*1347 FILLER_0_6_3
*1348 FILLER_0_6_301
*1349 FILLER_0_6_307
*1350 FILLER_0_6_309
*1351 FILLER_0_6_321
*1352 FILLER_0_6_333
*1353 FILLER_0_6_41
*1354 FILLER_0_6_53
*1355 FILLER_0_6_65
*1356 FILLER_0_6_77
*1357 FILLER_0_6_83
*1358 FILLER_0_6_85
*1359 FILLER_0_6_97
*1360 FILLER_0_7_105
*1361 FILLER_0_7_111
*1362 FILLER_0_7_113
*1363 FILLER_0_7_125
*1364 FILLER_0_7_137
*1365 FILLER_0_7_149
*1366 FILLER_0_7_15
*1367 FILLER_0_7_161
*1368 FILLER_0_7_167
*1369 FILLER_0_7_169
*1370 FILLER_0_7_181
*1371 FILLER_0_7_193
*1372 FILLER_0_7_205
*1373 FILLER_0_7_217
*1374 FILLER_0_7_223
*1375 FILLER_0_7_225
*1376 FILLER_0_7_237
*1377 FILLER_0_7_249
*1378 FILLER_0_7_261
*1379 FILLER_0_7_27
*1380 FILLER_0_7_273
*1381 FILLER_0_7_279
*1382 FILLER_0_7_281
*1383 FILLER_0_7_293
*1384 FILLER_0_7_3
*1385 FILLER_0_7_305
*1386 FILLER_0_7_317
*1387 FILLER_0_7_329
*1388 FILLER_0_7_39
*1389 FILLER_0_7_51
*1390 FILLER_0_7_55
*1391 FILLER_0_7_57
*1392 FILLER_0_7_69
*1393 FILLER_0_7_81
*1394 FILLER_0_7_93
*1395 FILLER_0_8_109
*1396 FILLER_0_8_121
*1397 FILLER_0_8_133
*1398 FILLER_0_8_139
*1399 FILLER_0_8_141
*1400 FILLER_0_8_15
*1401 FILLER_0_8_153
*1402 FILLER_0_8_165
*1403 FILLER_0_8_177
*1404 FILLER_0_8_189
*1405 FILLER_0_8_195
*1406 FILLER_0_8_197
*1407 FILLER_0_8_209
*1408 FILLER_0_8_221
*1409 FILLER_0_8_233
*1410 FILLER_0_8_245
*1411 FILLER_0_8_251
*1412 FILLER_0_8_253
*1413 FILLER_0_8_265
*1414 FILLER_0_8_27
*1415 FILLER_0_8_277
*1416 FILLER_0_8_289
*1417 FILLER_0_8_29
*1418 FILLER_0_8_3
*1419 FILLER_0_8_301
*1420 FILLER_0_8_307
*1421 FILLER_0_8_309
*1422 FILLER_0_8_321
*1423 FILLER_0_8_333
*1424 FILLER_0_8_41
*1425 FILLER_0_8_53
*1426 FILLER_0_8_65
*1427 FILLER_0_8_77
*1428 FILLER_0_8_83
*1429 FILLER_0_8_85
*1430 FILLER_0_8_97
*1431 FILLER_0_9_105
*1432 FILLER_0_9_111
*1433 FILLER_0_9_113
*1434 FILLER_0_9_125
*1435 FILLER_0_9_137
*1436 FILLER_0_9_149
*1437 FILLER_0_9_15
*1438 FILLER_0_9_161
*1439 FILLER_0_9_167
*1440 FILLER_0_9_169
*1441 FILLER_0_9_181
*1442 FILLER_0_9_193
*1443 FILLER_0_9_205
*1444 FILLER_0_9_217
*1445 FILLER_0_9_223
*1446 FILLER_0_9_225
*1447 FILLER_0_9_237
*1448 FILLER_0_9_249
*1449 FILLER_0_9_261
*1450 FILLER_0_9_27
*1451 FILLER_0_9_273
*1452 FILLER_0_9_279
*1453 FILLER_0_9_281
*1454 FILLER_0_9_293
*1455 FILLER_0_9_3
*1456 FILLER_0_9_305
*1457 FILLER_0_9_317
*1458 FILLER_0_9_329
*1459 FILLER_0_9_39