*SPEF "ieee 1481-1999"
*DESIGN "tt_um_hsc_tdc"
*DATE "05:31:56 Friday April 19, 2024"
*VENDOR "The OpenROAD Project"
*PROGRAM "OpenROAD"
*VERSION "0889970d1790a2617e69f253221b8bd7626e51dc"
*DESIGN_FLOW "NAME_SCOPE LOCAL" "PIN_CAP NONE"
*DIVIDER /
*DELIMITER :
*BUS_DELIMITER []
*T_UNIT 1 NS
*C_UNIT 1 PF
*R_UNIT 1 OHM
*L_UNIT 1 HENRY

*NAME_MAP
*3 clk
*4 ena
*5 rst_n
*6 ui_in[0]
*7 ui_in[1]
*8 ui_in[2]
*9 ui_in[3]
*10 ui_in[4]
*11 ui_in[5]
*12 ui_in[6]
*13 ui_in[7]
*14 uio_in[0]
*15 uio_in[1]
*16 uio_in[2]
*17 uio_in[3]
*18 uio_in[4]
*19 uio_in[5]
*20 uio_in[6]
*21 uio_in[7]
*22 net25
*23 net26
*24 net27
*25 net28
*26 net29
*27 net30
*28 net31
*29 net32
*30 net17
*31 net18
*32 net19
*33 net20
*34 net21
*35 net22
*36 net23
*37 net24
*38 uo_out[0]
*39 uo_out[1]
*40 uo_out[2]
*41 uo_out[3]
*42 uo_out[4]
*43 uo_out[5]
*44 uo_out[6]
*45 uo_out[7]
*46 _0000_
*47 _0001_
*48 _0002_
*49 _0003_
*50 _0004_
*51 _0005_
*52 _0006_
*53 _0007_
*54 _0008_
*55 _0009_
*56 _0010_
*57 _0011_
*58 _0012_
*59 _0013_
*60 _0014_
*61 _0015_
*62 _0016_
*63 _0017_
*64 _0018_
*65 _0019_
*66 _0020_
*67 _0021_
*68 _0022_
*69 _0023_
*70 _0024_
*71 _0025_
*72 _0026_
*73 _0027_
*74 _0028_
*75 _0029_
*76 _0030_
*77 _0031_
*78 _0032_
*79 _0033_
*80 _0034_
*81 _0035_
*82 _0036_
*83 _0037_
*84 _0038_
*85 _0039_
*86 _0040_
*87 _0041_
*88 _0042_
*89 _0043_
*90 _0044_
*91 _0045_
*92 _0046_
*93 _0047_
*94 _0048_
*95 _0049_
*96 _0050_
*97 _0051_
*98 _0052_
*99 _0053_
*100 _0054_
*101 _0055_
*102 _0056_
*103 _0057_
*104 _0058_
*105 _0059_
*106 _0060_
*107 _0061_
*108 _0062_
*109 _0063_
*110 _0064_
*111 _0065_
*112 _0066_
*113 _0067_
*114 _0068_
*115 _0069_
*116 _0070_
*117 _0071_
*118 _0072_
*119 _0073_
*120 _0074_
*121 _0075_
*122 _0076_
*123 _0077_
*124 _0078_
*125 _0079_
*126 _0080_
*127 _0081_
*128 _0082_
*129 _0083_
*130 _0084_
*131 _0085_
*132 _0086_
*133 _0087_
*134 _0088_
*135 _0089_
*136 _0090_
*137 _0091_
*138 _0092_
*139 _0093_
*140 _0094_
*141 _0095_
*142 _0096_
*143 _0097_
*144 _0098_
*145 _0099_
*146 _0100_
*147 _0101_
*148 _0102_
*149 _0103_
*150 _0104_
*151 _0105_
*152 _0106_
*153 _0107_
*154 _0108_
*155 _0109_
*156 _0110_
*157 _0111_
*158 _0112_
*159 _0113_
*160 _0114_
*161 _0115_
*162 _0116_
*163 _0117_
*164 _0118_
*165 _0119_
*166 _0120_
*167 _0121_
*168 _0122_
*169 _0123_
*170 _0124_
*171 _0125_
*172 _0126_
*173 _0127_
*174 _0128_
*175 _0129_
*176 _0130_
*177 _0131_
*178 _0132_
*179 _0133_
*180 _0134_
*181 _0135_
*182 _0136_
*183 _0137_
*184 _0138_
*185 _0139_
*186 _0140_
*187 _0141_
*188 _0142_
*189 _0143_
*190 _0144_
*191 _0145_
*192 _0146_
*193 _0147_
*194 _0148_
*195 _0149_
*196 _0150_
*197 _0151_
*198 _0152_
*199 _0153_
*200 _0154_
*201 _0155_
*202 _0156_
*203 _0157_
*204 _0158_
*205 _0159_
*206 _0160_
*207 _0161_
*208 _0162_
*209 _0163_
*210 _0164_
*211 _0165_
*212 _0166_
*213 _0167_
*214 _0168_
*215 _0169_
*216 _0170_
*217 _0171_
*218 _0172_
*219 _0173_
*220 _0174_
*221 _0175_
*222 _0176_
*223 _0177_
*224 _0178_
*225 _0179_
*226 _0180_
*227 _0181_
*228 _0182_
*229 _0183_
*230 _0184_
*231 _0185_
*232 _0186_
*233 _0187_
*234 _0188_
*235 _0189_
*236 _0190_
*237 _0191_
*238 _0192_
*239 _0193_
*240 _0194_
*241 _0195_
*242 _0196_
*243 _0197_
*244 _0198_
*245 _0199_
*246 _0200_
*247 _0201_
*248 _0202_
*249 _0203_
*250 _0204_
*251 _0205_
*252 _0206_
*253 _0207_
*254 _0208_
*255 _0209_
*256 _0210_
*257 _0211_
*258 _0212_
*259 _0213_
*260 _0214_
*261 _0215_
*262 _0216_
*263 _0217_
*264 _0218_
*265 _0219_
*266 _0220_
*267 _0221_
*268 _0222_
*269 _0223_
*270 _0224_
*271 _0225_
*272 _0226_
*273 _0227_
*274 _0228_
*275 _0229_
*276 _0230_
*277 _0231_
*278 _0232_
*279 _0233_
*280 _0234_
*281 _0235_
*282 _0236_
*283 _0237_
*284 _0238_
*285 _0239_
*286 _0240_
*287 _0241_
*288 _0242_
*289 _0243_
*290 _0244_
*291 _0245_
*292 _0246_
*293 _0247_
*294 _0248_
*295 _0249_
*296 _0250_
*297 _0251_
*298 _0252_
*299 _0253_
*300 _0254_
*301 _0255_
*302 _0256_
*303 _0257_
*304 _0258_
*305 _0259_
*306 _0260_
*307 _0261_
*308 _0262_
*309 _0263_
*310 _0264_
*311 _0265_
*312 _0266_
*313 _0267_
*314 _0268_
*315 _0269_
*316 _0270_
*317 _0271_
*318 _0272_
*319 _0273_
*320 _0274_
*321 _0275_
*322 _0276_
*323 _0277_
*324 _0278_
*325 _0279_
*326 _0280_
*327 _0281_
*328 _0282_
*329 _0283_
*330 _0284_
*331 _0285_
*332 _0286_
*333 _0287_
*334 _0288_
*335 _0289_
*336 _0290_
*337 _0291_
*338 _0292_
*339 _0293_
*340 _0294_
*341 _0295_
*342 _0296_
*343 _0297_
*344 _0298_
*345 _0299_
*346 _0300_
*347 _0301_
*348 _0302_
*349 _0303_
*350 _0304_
*351 _0305_
*352 _0306_
*353 _0307_
*354 _0308_
*355 _0309_
*356 _0310_
*357 _0311_
*358 _0312_
*359 _0313_
*360 _0314_
*361 _0315_
*362 _0316_
*363 _0317_
*364 _0318_
*365 _0319_
*366 _0320_
*367 _0321_
*368 _0322_
*369 _0323_
*370 _0324_
*371 _0325_
*372 _0326_
*373 _0327_
*374 _0328_
*375 _0329_
*376 _0330_
*377 _0331_
*378 _0332_
*379 _0333_
*380 _0334_
*381 _0335_
*382 _0336_
*383 _0337_
*384 _0338_
*385 _0339_
*386 _0340_
*387 _0341_
*388 _0342_
*389 _0343_
*390 _0344_
*391 _0345_
*392 _0346_
*393 _0347_
*394 _0348_
*395 _0349_
*396 _0350_
*397 _0351_
*398 _0352_
*399 _0353_
*400 _0354_
*401 _0355_
*402 _0356_
*403 _0357_
*404 _0358_
*405 _0359_
*406 _0360_
*407 _0361_
*408 _0362_
*409 _0363_
*410 _0364_
*411 _0365_
*412 _0366_
*413 _0367_
*414 _0368_
*415 _0369_
*416 _0370_
*417 _0371_
*418 _0372_
*419 _0373_
*420 _0374_
*421 _0375_
*422 _0376_
*423 _0377_
*424 _0378_
*425 _0379_
*426 _0380_
*427 _0381_
*428 _0382_
*429 _0383_
*430 _0384_
*431 _0385_
*432 _0386_
*433 _0387_
*434 _0388_
*435 _0389_
*436 _0390_
*437 _0391_
*438 _0392_
*439 _0393_
*440 _0394_
*441 _0395_
*442 _0396_
*443 _0397_
*444 _0398_
*445 _0399_
*446 _0400_
*447 _0401_
*448 _0402_
*449 _0403_
*450 _0404_
*451 _0405_
*452 _0406_
*453 _0407_
*454 _0408_
*455 _0409_
*456 _0410_
*457 _0411_
*458 _0412_
*459 _0413_
*460 _0414_
*461 _0415_
*462 _0416_
*463 _0417_
*464 _0418_
*465 _0419_
*466 _0420_
*467 _0421_
*468 _0422_
*469 _0423_
*470 _0424_
*471 _0425_
*472 _0426_
*473 _0427_
*474 _0428_
*475 _0429_
*476 _0430_
*477 _0431_
*478 _0432_
*479 _0433_
*480 _0434_
*481 _0435_
*482 _0436_
*483 _0437_
*484 _0438_
*485 _0439_
*486 _0440_
*487 _0441_
*488 _0442_
*489 _0443_
*490 _0444_
*491 _0445_
*492 _0446_
*493 _0447_
*494 _0448_
*495 _0449_
*496 _0450_
*497 _0451_
*498 _0452_
*499 _0453_
*500 _0454_
*501 _0455_
*502 _0456_
*503 _0457_
*504 _0458_
*505 _0459_
*506 _0460_
*507 _0461_
*508 _0462_
*509 _0463_
*510 _0464_
*511 _0465_
*512 _0466_
*513 _0467_
*514 _0468_
*515 _0469_
*516 clknet_0_ui_in[0]
*517 clknet_0_ui_in[1]
*518 clknet_1_0__leaf_ui_in[0]
*519 clknet_1_1__leaf_ui_in[0]
*520 clknet_4_0_0_ui_in[1]
*521 clknet_4_10_0_ui_in[1]
*522 clknet_4_11_0_ui_in[1]
*523 clknet_4_12_0_ui_in[1]
*524 clknet_4_13_0_ui_in[1]
*525 clknet_4_14_0_ui_in[1]
*526 clknet_4_15_0_ui_in[1]
*527 clknet_4_1_0_ui_in[1]
*528 clknet_4_2_0_ui_in[1]
*529 clknet_4_3_0_ui_in[1]
*530 clknet_4_4_0_ui_in[1]
*531 clknet_4_5_0_ui_in[1]
*532 clknet_4_6_0_ui_in[1]
*533 clknet_4_7_0_ui_in[1]
*534 clknet_4_8_0_ui_in[1]
*535 clknet_4_9_0_ui_in[1]
*536 net1
*537 net10
*538 net100
*539 net101
*540 net102
*541 net103
*542 net104
*543 net105
*544 net106
*545 net107
*546 net108
*547 net109
*548 net11
*549 net110
*550 net111
*551 net112
*552 net113
*553 net114
*554 net115
*555 net116
*556 net117
*557 net118
*558 net119
*559 net12
*560 net120
*561 net121
*562 net122
*563 net123
*564 net124
*565 net125
*566 net126
*567 net127
*568 net128
*569 net129
*570 net13
*571 net130
*572 net131
*573 net132
*574 net133
*575 net134
*576 net135
*577 net136
*578 net137
*579 net138
*580 net139
*581 net14
*582 net140
*583 net141
*584 net142
*585 net143
*586 net144
*587 net145
*588 net146
*589 net147
*590 net148
*591 net149
*592 net15
*593 net150
*594 net16
*595 net2
*596 net3
*597 net33
*598 net34
*599 net35
*600 net36
*601 net37
*602 net38
*603 net39
*604 net4
*605 net40
*606 net41
*607 net42
*608 net43
*609 net44
*610 net45
*611 net46
*612 net47
*613 net48
*614 net49
*615 net5
*616 net50
*617 net51
*618 net52
*619 net53
*620 net54
*621 net55
*622 net56
*623 net57
*624 net58
*625 net59
*626 net6
*627 net60
*628 net61
*629 net62
*630 net63
*631 net64
*632 net65
*633 net66
*634 net67
*635 net68
*636 net69
*637 net7
*638 net70
*639 net71
*640 net72
*641 net73
*642 net74
*643 net75
*644 net76
*645 net77
*646 net78
*647 net79
*648 net8
*649 net80
*650 net81
*651 net82
*652 net83
*653 net84
*654 net85
*655 net86
*656 net87
*657 net88
*658 net89
*659 net9
*660 net90
*661 net91
*662 net92
*663 net93
*664 net94
*665 net95
*666 net96
*667 net97
*668 net98
*669 net99
*670 tdc_inst\.capt_out\[0\]
*671 tdc_inst\.capt_out\[10\]
*672 tdc_inst\.capt_out\[11\]
*673 tdc_inst\.capt_out\[12\]
*674 tdc_inst\.capt_out\[13\]
*675 tdc_inst\.capt_out\[14\]
*676 tdc_inst\.capt_out\[15\]
*677 tdc_inst\.capt_out\[16\]
*678 tdc_inst\.capt_out\[17\]
*679 tdc_inst\.capt_out\[18\]
*680 tdc_inst\.capt_out\[19\]
*681 tdc_inst\.capt_out\[1\]
*682 tdc_inst\.capt_out\[20\]
*683 tdc_inst\.capt_out\[21\]
*684 tdc_inst\.capt_out\[22\]
*685 tdc_inst\.capt_out\[23\]
*686 tdc_inst\.capt_out\[24\]
*687 tdc_inst\.capt_out\[25\]
*688 tdc_inst\.capt_out\[26\]
*689 tdc_inst\.capt_out\[27\]
*690 tdc_inst\.capt_out\[28\]
*691 tdc_inst\.capt_out\[29\]
*692 tdc_inst\.capt_out\[2\]
*693 tdc_inst\.capt_out\[30\]
*694 tdc_inst\.capt_out\[31\]
*695 tdc_inst\.capt_out\[32\]
*696 tdc_inst\.capt_out\[33\]
*697 tdc_inst\.capt_out\[34\]
*698 tdc_inst\.capt_out\[35\]
*699 tdc_inst\.capt_out\[36\]
*700 tdc_inst\.capt_out\[37\]
*701 tdc_inst\.capt_out\[38\]
*702 tdc_inst\.capt_out\[39\]
*703 tdc_inst\.capt_out\[3\]
*704 tdc_inst\.capt_out\[40\]
*705 tdc_inst\.capt_out\[41\]
*706 tdc_inst\.capt_out\[42\]
*707 tdc_inst\.capt_out\[43\]
*708 tdc_inst\.capt_out\[44\]
*709 tdc_inst\.capt_out\[45\]
*710 tdc_inst\.capt_out\[46\]
*711 tdc_inst\.capt_out\[47\]
*712 tdc_inst\.capt_out\[48\]
*713 tdc_inst\.capt_out\[49\]
*714 tdc_inst\.capt_out\[4\]
*715 tdc_inst\.capt_out\[50\]
*716 tdc_inst\.capt_out\[51\]
*717 tdc_inst\.capt_out\[52\]
*718 tdc_inst\.capt_out\[53\]
*719 tdc_inst\.capt_out\[54\]
*720 tdc_inst\.capt_out\[55\]
*721 tdc_inst\.capt_out\[56\]
*722 tdc_inst\.capt_out\[57\]
*723 tdc_inst\.capt_out\[58\]
*724 tdc_inst\.capt_out\[59\]
*725 tdc_inst\.capt_out\[5\]
*726 tdc_inst\.capt_out\[60\]
*727 tdc_inst\.capt_out\[61\]
*728 tdc_inst\.capt_out\[62\]
*729 tdc_inst\.capt_out\[63\]
*730 tdc_inst\.capt_out\[6\]
*731 tdc_inst\.capt_out\[7\]
*732 tdc_inst\.capt_out\[8\]
*733 tdc_inst\.capt_out\[9\]
*734 tdc_inst\.capt_reg_r\[1\]\[0\]
*735 tdc_inst\.capt_reg_r\[1\]\[10\]
*736 tdc_inst\.capt_reg_r\[1\]\[11\]
*737 tdc_inst\.capt_reg_r\[1\]\[12\]
*738 tdc_inst\.capt_reg_r\[1\]\[13\]
*739 tdc_inst\.capt_reg_r\[1\]\[14\]
*740 tdc_inst\.capt_reg_r\[1\]\[15\]
*741 tdc_inst\.capt_reg_r\[1\]\[16\]
*742 tdc_inst\.capt_reg_r\[1\]\[17\]
*743 tdc_inst\.capt_reg_r\[1\]\[18\]
*744 tdc_inst\.capt_reg_r\[1\]\[19\]
*745 tdc_inst\.capt_reg_r\[1\]\[1\]
*746 tdc_inst\.capt_reg_r\[1\]\[20\]
*747 tdc_inst\.capt_reg_r\[1\]\[21\]
*748 tdc_inst\.capt_reg_r\[1\]\[22\]
*749 tdc_inst\.capt_reg_r\[1\]\[23\]
*750 tdc_inst\.capt_reg_r\[1\]\[24\]
*751 tdc_inst\.capt_reg_r\[1\]\[25\]
*752 tdc_inst\.capt_reg_r\[1\]\[26\]
*753 tdc_inst\.capt_reg_r\[1\]\[27\]
*754 tdc_inst\.capt_reg_r\[1\]\[28\]
*755 tdc_inst\.capt_reg_r\[1\]\[29\]
*756 tdc_inst\.capt_reg_r\[1\]\[2\]
*757 tdc_inst\.capt_reg_r\[1\]\[30\]
*758 tdc_inst\.capt_reg_r\[1\]\[31\]
*759 tdc_inst\.capt_reg_r\[1\]\[32\]
*760 tdc_inst\.capt_reg_r\[1\]\[33\]
*761 tdc_inst\.capt_reg_r\[1\]\[34\]
*762 tdc_inst\.capt_reg_r\[1\]\[35\]
*763 tdc_inst\.capt_reg_r\[1\]\[36\]
*764 tdc_inst\.capt_reg_r\[1\]\[37\]
*765 tdc_inst\.capt_reg_r\[1\]\[38\]
*766 tdc_inst\.capt_reg_r\[1\]\[39\]
*767 tdc_inst\.capt_reg_r\[1\]\[3\]
*768 tdc_inst\.capt_reg_r\[1\]\[40\]
*769 tdc_inst\.capt_reg_r\[1\]\[41\]
*770 tdc_inst\.capt_reg_r\[1\]\[42\]
*771 tdc_inst\.capt_reg_r\[1\]\[43\]
*772 tdc_inst\.capt_reg_r\[1\]\[44\]
*773 tdc_inst\.capt_reg_r\[1\]\[45\]
*774 tdc_inst\.capt_reg_r\[1\]\[46\]
*775 tdc_inst\.capt_reg_r\[1\]\[47\]
*776 tdc_inst\.capt_reg_r\[1\]\[48\]
*777 tdc_inst\.capt_reg_r\[1\]\[49\]
*778 tdc_inst\.capt_reg_r\[1\]\[4\]
*779 tdc_inst\.capt_reg_r\[1\]\[50\]
*780 tdc_inst\.capt_reg_r\[1\]\[51\]
*781 tdc_inst\.capt_reg_r\[1\]\[52\]
*782 tdc_inst\.capt_reg_r\[1\]\[53\]
*783 tdc_inst\.capt_reg_r\[1\]\[54\]
*784 tdc_inst\.capt_reg_r\[1\]\[55\]
*785 tdc_inst\.capt_reg_r\[1\]\[56\]
*786 tdc_inst\.capt_reg_r\[1\]\[57\]
*787 tdc_inst\.capt_reg_r\[1\]\[58\]
*788 tdc_inst\.capt_reg_r\[1\]\[59\]
*789 tdc_inst\.capt_reg_r\[1\]\[5\]
*790 tdc_inst\.capt_reg_r\[1\]\[60\]
*791 tdc_inst\.capt_reg_r\[1\]\[61\]
*792 tdc_inst\.capt_reg_r\[1\]\[62\]
*793 tdc_inst\.capt_reg_r\[1\]\[63\]
*794 tdc_inst\.capt_reg_r\[1\]\[6\]
*795 tdc_inst\.capt_reg_r\[1\]\[7\]
*796 tdc_inst\.capt_reg_r\[1\]\[8\]
*797 tdc_inst\.capt_reg_r\[1\]\[9\]
*798 tdc_inst\.dl_capt\.D\[0\]
*799 tdc_inst\.dl_capt\.D\[10\]
*800 tdc_inst\.dl_capt\.D\[11\]
*801 tdc_inst\.dl_capt\.D\[12\]
*802 tdc_inst\.dl_capt\.D\[13\]
*803 tdc_inst\.dl_capt\.D\[14\]
*804 tdc_inst\.dl_capt\.D\[15\]
*805 tdc_inst\.dl_capt\.D\[16\]
*806 tdc_inst\.dl_capt\.D\[17\]
*807 tdc_inst\.dl_capt\.D\[18\]
*808 tdc_inst\.dl_capt\.D\[19\]
*809 tdc_inst\.dl_capt\.D\[1\]
*810 tdc_inst\.dl_capt\.D\[20\]
*811 tdc_inst\.dl_capt\.D\[21\]
*812 tdc_inst\.dl_capt\.D\[22\]
*813 tdc_inst\.dl_capt\.D\[23\]
*814 tdc_inst\.dl_capt\.D\[24\]
*815 tdc_inst\.dl_capt\.D\[25\]
*816 tdc_inst\.dl_capt\.D\[26\]
*817 tdc_inst\.dl_capt\.D\[27\]
*818 tdc_inst\.dl_capt\.D\[28\]
*819 tdc_inst\.dl_capt\.D\[29\]
*820 tdc_inst\.dl_capt\.D\[2\]
*821 tdc_inst\.dl_capt\.D\[30\]
*822 tdc_inst\.dl_capt\.D\[31\]
*823 tdc_inst\.dl_capt\.D\[32\]
*824 tdc_inst\.dl_capt\.D\[33\]
*825 tdc_inst\.dl_capt\.D\[34\]
*826 tdc_inst\.dl_capt\.D\[35\]
*827 tdc_inst\.dl_capt\.D\[36\]
*828 tdc_inst\.dl_capt\.D\[37\]
*829 tdc_inst\.dl_capt\.D\[38\]
*830 tdc_inst\.dl_capt\.D\[39\]
*831 tdc_inst\.dl_capt\.D\[3\]
*832 tdc_inst\.dl_capt\.D\[40\]
*833 tdc_inst\.dl_capt\.D\[41\]
*834 tdc_inst\.dl_capt\.D\[42\]
*835 tdc_inst\.dl_capt\.D\[43\]
*836 tdc_inst\.dl_capt\.D\[44\]
*837 tdc_inst\.dl_capt\.D\[45\]
*838 tdc_inst\.dl_capt\.D\[46\]
*839 tdc_inst\.dl_capt\.D\[47\]
*840 tdc_inst\.dl_capt\.D\[48\]
*841 tdc_inst\.dl_capt\.D\[49\]
*842 tdc_inst\.dl_capt\.D\[4\]
*843 tdc_inst\.dl_capt\.D\[50\]
*844 tdc_inst\.dl_capt\.D\[51\]
*845 tdc_inst\.dl_capt\.D\[52\]
*846 tdc_inst\.dl_capt\.D\[53\]
*847 tdc_inst\.dl_capt\.D\[54\]
*848 tdc_inst\.dl_capt\.D\[55\]
*849 tdc_inst\.dl_capt\.D\[56\]
*850 tdc_inst\.dl_capt\.D\[57\]
*851 tdc_inst\.dl_capt\.D\[58\]
*852 tdc_inst\.dl_capt\.D\[59\]
*853 tdc_inst\.dl_capt\.D\[5\]
*854 tdc_inst\.dl_capt\.D\[60\]
*855 tdc_inst\.dl_capt\.D\[61\]
*856 tdc_inst\.dl_capt\.D\[62\]
*857 tdc_inst\.dl_capt\.D\[63\]
*858 tdc_inst\.dl_capt\.D\[6\]
*859 tdc_inst\.dl_capt\.D\[7\]
*860 tdc_inst\.dl_capt\.D\[8\]
*861 tdc_inst\.dl_capt\.D\[9\]
*862 tdc_inst\.dl_inst\.dl_genblk\.dl\.a_int\[0\]
*863 tdc_inst\.dl_inst\.dl_genblk\.dl\.a_int\[10\]
*864 tdc_inst\.dl_inst\.dl_genblk\.dl\.a_int\[11\]
*865 tdc_inst\.dl_inst\.dl_genblk\.dl\.a_int\[12\]
*866 tdc_inst\.dl_inst\.dl_genblk\.dl\.a_int\[13\]
*867 tdc_inst\.dl_inst\.dl_genblk\.dl\.a_int\[14\]
*868 tdc_inst\.dl_inst\.dl_genblk\.dl\.a_int\[15\]
*869 tdc_inst\.dl_inst\.dl_genblk\.dl\.a_int\[16\]
*870 tdc_inst\.dl_inst\.dl_genblk\.dl\.a_int\[17\]
*871 tdc_inst\.dl_inst\.dl_genblk\.dl\.a_int\[18\]
*872 tdc_inst\.dl_inst\.dl_genblk\.dl\.a_int\[19\]
*873 tdc_inst\.dl_inst\.dl_genblk\.dl\.a_int\[1\]
*874 tdc_inst\.dl_inst\.dl_genblk\.dl\.a_int\[20\]
*875 tdc_inst\.dl_inst\.dl_genblk\.dl\.a_int\[21\]
*876 tdc_inst\.dl_inst\.dl_genblk\.dl\.a_int\[22\]
*877 tdc_inst\.dl_inst\.dl_genblk\.dl\.a_int\[23\]
*878 tdc_inst\.dl_inst\.dl_genblk\.dl\.a_int\[24\]
*879 tdc_inst\.dl_inst\.dl_genblk\.dl\.a_int\[25\]
*880 tdc_inst\.dl_inst\.dl_genblk\.dl\.a_int\[26\]
*881 tdc_inst\.dl_inst\.dl_genblk\.dl\.a_int\[27\]
*882 tdc_inst\.dl_inst\.dl_genblk\.dl\.a_int\[28\]
*883 tdc_inst\.dl_inst\.dl_genblk\.dl\.a_int\[29\]
*884 tdc_inst\.dl_inst\.dl_genblk\.dl\.a_int\[2\]
*885 tdc_inst\.dl_inst\.dl_genblk\.dl\.a_int\[30\]
*886 tdc_inst\.dl_inst\.dl_genblk\.dl\.a_int\[31\]
*887 tdc_inst\.dl_inst\.dl_genblk\.dl\.a_int\[32\]
*888 tdc_inst\.dl_inst\.dl_genblk\.dl\.a_int\[33\]
*889 tdc_inst\.dl_inst\.dl_genblk\.dl\.a_int\[34\]
*890 tdc_inst\.dl_inst\.dl_genblk\.dl\.a_int\[35\]
*891 tdc_inst\.dl_inst\.dl_genblk\.dl\.a_int\[36\]
*892 tdc_inst\.dl_inst\.dl_genblk\.dl\.a_int\[37\]
*893 tdc_inst\.dl_inst\.dl_genblk\.dl\.a_int\[38\]
*894 tdc_inst\.dl_inst\.dl_genblk\.dl\.a_int\[39\]
*895 tdc_inst\.dl_inst\.dl_genblk\.dl\.a_int\[3\]
*896 tdc_inst\.dl_inst\.dl_genblk\.dl\.a_int\[40\]
*897 tdc_inst\.dl_inst\.dl_genblk\.dl\.a_int\[41\]
*898 tdc_inst\.dl_inst\.dl_genblk\.dl\.a_int\[42\]
*899 tdc_inst\.dl_inst\.dl_genblk\.dl\.a_int\[43\]
*900 tdc_inst\.dl_inst\.dl_genblk\.dl\.a_int\[44\]
*901 tdc_inst\.dl_inst\.dl_genblk\.dl\.a_int\[45\]
*902 tdc_inst\.dl_inst\.dl_genblk\.dl\.a_int\[46\]
*903 tdc_inst\.dl_inst\.dl_genblk\.dl\.a_int\[47\]
*904 tdc_inst\.dl_inst\.dl_genblk\.dl\.a_int\[48\]
*905 tdc_inst\.dl_inst\.dl_genblk\.dl\.a_int\[49\]
*906 tdc_inst\.dl_inst\.dl_genblk\.dl\.a_int\[4\]
*907 tdc_inst\.dl_inst\.dl_genblk\.dl\.a_int\[50\]
*908 tdc_inst\.dl_inst\.dl_genblk\.dl\.a_int\[51\]
*909 tdc_inst\.dl_inst\.dl_genblk\.dl\.a_int\[52\]
*910 tdc_inst\.dl_inst\.dl_genblk\.dl\.a_int\[53\]
*911 tdc_inst\.dl_inst\.dl_genblk\.dl\.a_int\[54\]
*912 tdc_inst\.dl_inst\.dl_genblk\.dl\.a_int\[55\]
*913 tdc_inst\.dl_inst\.dl_genblk\.dl\.a_int\[56\]
*914 tdc_inst\.dl_inst\.dl_genblk\.dl\.a_int\[57\]
*915 tdc_inst\.dl_inst\.dl_genblk\.dl\.a_int\[58\]
*916 tdc_inst\.dl_inst\.dl_genblk\.dl\.a_int\[59\]
*917 tdc_inst\.dl_inst\.dl_genblk\.dl\.a_int\[5\]
*918 tdc_inst\.dl_inst\.dl_genblk\.dl\.a_int\[60\]
*919 tdc_inst\.dl_inst\.dl_genblk\.dl\.a_int\[61\]
*920 tdc_inst\.dl_inst\.dl_genblk\.dl\.a_int\[62\]
*921 tdc_inst\.dl_inst\.dl_genblk\.dl\.a_int\[63\]
*922 tdc_inst\.dl_inst\.dl_genblk\.dl\.a_int\[6\]
*923 tdc_inst\.dl_inst\.dl_genblk\.dl\.a_int\[7\]
*924 tdc_inst\.dl_inst\.dl_genblk\.dl\.a_int\[8\]
*925 tdc_inst\.dl_inst\.dl_genblk\.dl\.a_int\[9\]
*926 tdc_inst\.dl_inst\.dl_genblk\.dl\.b_int\[0\]
*927 tdc_inst\.dl_inst\.dl_genblk\.dl\.b_int\[10\]
*928 tdc_inst\.dl_inst\.dl_genblk\.dl\.b_int\[11\]
*929 tdc_inst\.dl_inst\.dl_genblk\.dl\.b_int\[12\]
*930 tdc_inst\.dl_inst\.dl_genblk\.dl\.b_int\[13\]
*931 tdc_inst\.dl_inst\.dl_genblk\.dl\.b_int\[14\]
*932 tdc_inst\.dl_inst\.dl_genblk\.dl\.b_int\[15\]
*933 tdc_inst\.dl_inst\.dl_genblk\.dl\.b_int\[16\]
*934 tdc_inst\.dl_inst\.dl_genblk\.dl\.b_int\[17\]
*935 tdc_inst\.dl_inst\.dl_genblk\.dl\.b_int\[18\]
*936 tdc_inst\.dl_inst\.dl_genblk\.dl\.b_int\[19\]
*937 tdc_inst\.dl_inst\.dl_genblk\.dl\.b_int\[1\]
*938 tdc_inst\.dl_inst\.dl_genblk\.dl\.b_int\[20\]
*939 tdc_inst\.dl_inst\.dl_genblk\.dl\.b_int\[21\]
*940 tdc_inst\.dl_inst\.dl_genblk\.dl\.b_int\[22\]
*941 tdc_inst\.dl_inst\.dl_genblk\.dl\.b_int\[23\]
*942 tdc_inst\.dl_inst\.dl_genblk\.dl\.b_int\[24\]
*943 tdc_inst\.dl_inst\.dl_genblk\.dl\.b_int\[25\]
*944 tdc_inst\.dl_inst\.dl_genblk\.dl\.b_int\[26\]
*945 tdc_inst\.dl_inst\.dl_genblk\.dl\.b_int\[27\]
*946 tdc_inst\.dl_inst\.dl_genblk\.dl\.b_int\[28\]
*947 tdc_inst\.dl_inst\.dl_genblk\.dl\.b_int\[29\]
*948 tdc_inst\.dl_inst\.dl_genblk\.dl\.b_int\[2\]
*949 tdc_inst\.dl_inst\.dl_genblk\.dl\.b_int\[30\]
*950 tdc_inst\.dl_inst\.dl_genblk\.dl\.b_int\[31\]
*951 tdc_inst\.dl_inst\.dl_genblk\.dl\.b_int\[32\]
*952 tdc_inst\.dl_inst\.dl_genblk\.dl\.b_int\[33\]
*953 tdc_inst\.dl_inst\.dl_genblk\.dl\.b_int\[34\]
*954 tdc_inst\.dl_inst\.dl_genblk\.dl\.b_int\[35\]
*955 tdc_inst\.dl_inst\.dl_genblk\.dl\.b_int\[36\]
*956 tdc_inst\.dl_inst\.dl_genblk\.dl\.b_int\[37\]
*957 tdc_inst\.dl_inst\.dl_genblk\.dl\.b_int\[38\]
*958 tdc_inst\.dl_inst\.dl_genblk\.dl\.b_int\[39\]
*959 tdc_inst\.dl_inst\.dl_genblk\.dl\.b_int\[3\]
*960 tdc_inst\.dl_inst\.dl_genblk\.dl\.b_int\[40\]
*961 tdc_inst\.dl_inst\.dl_genblk\.dl\.b_int\[41\]
*962 tdc_inst\.dl_inst\.dl_genblk\.dl\.b_int\[42\]
*963 tdc_inst\.dl_inst\.dl_genblk\.dl\.b_int\[43\]
*964 tdc_inst\.dl_inst\.dl_genblk\.dl\.b_int\[44\]
*965 tdc_inst\.dl_inst\.dl_genblk\.dl\.b_int\[45\]
*966 tdc_inst\.dl_inst\.dl_genblk\.dl\.b_int\[46\]
*967 tdc_inst\.dl_inst\.dl_genblk\.dl\.b_int\[47\]
*968 tdc_inst\.dl_inst\.dl_genblk\.dl\.b_int\[48\]
*969 tdc_inst\.dl_inst\.dl_genblk\.dl\.b_int\[49\]
*970 tdc_inst\.dl_inst\.dl_genblk\.dl\.b_int\[4\]
*971 tdc_inst\.dl_inst\.dl_genblk\.dl\.b_int\[50\]
*972 tdc_inst\.dl_inst\.dl_genblk\.dl\.b_int\[51\]
*973 tdc_inst\.dl_inst\.dl_genblk\.dl\.b_int\[52\]
*974 tdc_inst\.dl_inst\.dl_genblk\.dl\.b_int\[53\]
*975 tdc_inst\.dl_inst\.dl_genblk\.dl\.b_int\[54\]
*976 tdc_inst\.dl_inst\.dl_genblk\.dl\.b_int\[55\]
*977 tdc_inst\.dl_inst\.dl_genblk\.dl\.b_int\[56\]
*978 tdc_inst\.dl_inst\.dl_genblk\.dl\.b_int\[57\]
*979 tdc_inst\.dl_inst\.dl_genblk\.dl\.b_int\[58\]
*980 tdc_inst\.dl_inst\.dl_genblk\.dl\.b_int\[59\]
*981 tdc_inst\.dl_inst\.dl_genblk\.dl\.b_int\[5\]
*982 tdc_inst\.dl_inst\.dl_genblk\.dl\.b_int\[60\]
*983 tdc_inst\.dl_inst\.dl_genblk\.dl\.b_int\[61\]
*984 tdc_inst\.dl_inst\.dl_genblk\.dl\.b_int\[62\]
*985 tdc_inst\.dl_inst\.dl_genblk\.dl\.b_int\[63\]
*986 tdc_inst\.dl_inst\.dl_genblk\.dl\.b_int\[6\]
*987 tdc_inst\.dl_inst\.dl_genblk\.dl\.b_int\[7\]
*988 tdc_inst\.dl_inst\.dl_genblk\.dl\.b_int\[8\]
*989 tdc_inst\.dl_inst\.dl_genblk\.dl\.b_int\[9\]
*990 tdc_inst\.dl_inst\.dl_genblk\.dl\.c\[0\]
*991 tdc_inst\.dl_inst\.dl_genblk\.dl\.c\[10\]
*992 tdc_inst\.dl_inst\.dl_genblk\.dl\.c\[11\]
*993 tdc_inst\.dl_inst\.dl_genblk\.dl\.c\[12\]
*994 tdc_inst\.dl_inst\.dl_genblk\.dl\.c\[13\]
*995 tdc_inst\.dl_inst\.dl_genblk\.dl\.c\[14\]
*996 tdc_inst\.dl_inst\.dl_genblk\.dl\.c\[15\]
*997 tdc_inst\.dl_inst\.dl_genblk\.dl\.c\[16\]
*998 tdc_inst\.dl_inst\.dl_genblk\.dl\.c\[17\]
*999 tdc_inst\.dl_inst\.dl_genblk\.dl\.c\[18\]
*1000 tdc_inst\.dl_inst\.dl_genblk\.dl\.c\[19\]
*1001 tdc_inst\.dl_inst\.dl_genblk\.dl\.c\[1\]
*1002 tdc_inst\.dl_inst\.dl_genblk\.dl\.c\[20\]
*1003 tdc_inst\.dl_inst\.dl_genblk\.dl\.c\[21\]
*1004 tdc_inst\.dl_inst\.dl_genblk\.dl\.c\[22\]
*1005 tdc_inst\.dl_inst\.dl_genblk\.dl\.c\[23\]
*1006 tdc_inst\.dl_inst\.dl_genblk\.dl\.c\[24\]
*1007 tdc_inst\.dl_inst\.dl_genblk\.dl\.c\[25\]
*1008 tdc_inst\.dl_inst\.dl_genblk\.dl\.c\[26\]
*1009 tdc_inst\.dl_inst\.dl_genblk\.dl\.c\[27\]
*1010 tdc_inst\.dl_inst\.dl_genblk\.dl\.c\[28\]
*1011 tdc_inst\.dl_inst\.dl_genblk\.dl\.c\[29\]
*1012 tdc_inst\.dl_inst\.dl_genblk\.dl\.c\[2\]
*1013 tdc_inst\.dl_inst\.dl_genblk\.dl\.c\[30\]
*1014 tdc_inst\.dl_inst\.dl_genblk\.dl\.c\[31\]
*1015 tdc_inst\.dl_inst\.dl_genblk\.dl\.c\[32\]
*1016 tdc_inst\.dl_inst\.dl_genblk\.dl\.c\[33\]
*1017 tdc_inst\.dl_inst\.dl_genblk\.dl\.c\[34\]
*1018 tdc_inst\.dl_inst\.dl_genblk\.dl\.c\[35\]
*1019 tdc_inst\.dl_inst\.dl_genblk\.dl\.c\[36\]
*1020 tdc_inst\.dl_inst\.dl_genblk\.dl\.c\[37\]
*1021 tdc_inst\.dl_inst\.dl_genblk\.dl\.c\[38\]
*1022 tdc_inst\.dl_inst\.dl_genblk\.dl\.c\[39\]
*1023 tdc_inst\.dl_inst\.dl_genblk\.dl\.c\[3\]
*1024 tdc_inst\.dl_inst\.dl_genblk\.dl\.c\[40\]
*1025 tdc_inst\.dl_inst\.dl_genblk\.dl\.c\[41\]
*1026 tdc_inst\.dl_inst\.dl_genblk\.dl\.c\[42\]
*1027 tdc_inst\.dl_inst\.dl_genblk\.dl\.c\[43\]
*1028 tdc_inst\.dl_inst\.dl_genblk\.dl\.c\[44\]
*1029 tdc_inst\.dl_inst\.dl_genblk\.dl\.c\[45\]
*1030 tdc_inst\.dl_inst\.dl_genblk\.dl\.c\[46\]
*1031 tdc_inst\.dl_inst\.dl_genblk\.dl\.c\[47\]
*1032 tdc_inst\.dl_inst\.dl_genblk\.dl\.c\[48\]
*1033 tdc_inst\.dl_inst\.dl_genblk\.dl\.c\[49\]
*1034 tdc_inst\.dl_inst\.dl_genblk\.dl\.c\[4\]
*1035 tdc_inst\.dl_inst\.dl_genblk\.dl\.c\[50\]
*1036 tdc_inst\.dl_inst\.dl_genblk\.dl\.c\[51\]
*1037 tdc_inst\.dl_inst\.dl_genblk\.dl\.c\[52\]
*1038 tdc_inst\.dl_inst\.dl_genblk\.dl\.c\[53\]
*1039 tdc_inst\.dl_inst\.dl_genblk\.dl\.c\[54\]
*1040 tdc_inst\.dl_inst\.dl_genblk\.dl\.c\[55\]
*1041 tdc_inst\.dl_inst\.dl_genblk\.dl\.c\[56\]
*1042 tdc_inst\.dl_inst\.dl_genblk\.dl\.c\[57\]
*1043 tdc_inst\.dl_inst\.dl_genblk\.dl\.c\[58\]
*1044 tdc_inst\.dl_inst\.dl_genblk\.dl\.c\[59\]
*1045 tdc_inst\.dl_inst\.dl_genblk\.dl\.c\[5\]
*1046 tdc_inst\.dl_inst\.dl_genblk\.dl\.c\[60\]
*1047 tdc_inst\.dl_inst\.dl_genblk\.dl\.c\[61\]
*1048 tdc_inst\.dl_inst\.dl_genblk\.dl\.c\[62\]
*1049 tdc_inst\.dl_inst\.dl_genblk\.dl\.c\[63\]
*1050 tdc_inst\.dl_inst\.dl_genblk\.dl\.c\[64\]
*1051 tdc_inst\.dl_inst\.dl_genblk\.dl\.c\[6\]
*1052 tdc_inst\.dl_inst\.dl_genblk\.dl\.c\[7\]
*1053 tdc_inst\.dl_inst\.dl_genblk\.dl\.c\[8\]
*1054 tdc_inst\.dl_inst\.dl_genblk\.dl\.c\[9\]
*1055 tdc_inst\.dl_inst\.dl_genblk\.dl\.co
*1056 tdc_inst\.pc_inst\.val_in
*1057 tdc_inst\.pc_inst\.val_out
*1058 tdc_inst\.pg\.pg_r_out
*1059 tdc_inst\.pg\.val_r_out
*1060 tdc_inst\.pg_out
*1061 tdc_inst\.val_out_capt
*1062 ANTENNA_1
*1063 FILLER_0_0_109
*1064 FILLER_0_0_113
*1065 FILLER_0_0_125
*1066 FILLER_0_0_137
*1067 FILLER_0_0_141
*1068 FILLER_0_0_15
*1069 FILLER_0_0_153
*1070 FILLER_0_0_165
*1071 FILLER_0_0_169
*1072 FILLER_0_0_181
*1073 FILLER_0_0_193
*1074 FILLER_0_0_197
*1075 FILLER_0_0_209
*1076 FILLER_0_0_221
*1077 FILLER_0_0_225
*1078 FILLER_0_0_237
*1079 FILLER_0_0_249
*1080 FILLER_0_0_253
*1081 FILLER_0_0_265
*1082 FILLER_0_0_27
*1083 FILLER_0_0_277
*1084 FILLER_0_0_281
*1085 FILLER_0_0_29
*1086 FILLER_0_0_293
*1087 FILLER_0_0_3
*1088 FILLER_0_0_305
*1089 FILLER_0_0_309
*1090 FILLER_0_0_321
*1091 FILLER_0_0_333
*1092 FILLER_0_0_41
*1093 FILLER_0_0_53
*1094 FILLER_0_0_57
*1095 FILLER_0_0_69
*1096 FILLER_0_0_81
*1097 FILLER_0_0_85
*1098 FILLER_0_0_97
*1099 FILLER_0_10_106
*1100 FILLER_0_10_118
*1101 FILLER_0_10_130
*1102 FILLER_0_10_138
*1103 FILLER_0_10_141
*1104 FILLER_0_10_15
*1105 FILLER_0_10_152
*1106 FILLER_0_10_164
*1107 FILLER_0_10_176
*1108 FILLER_0_10_188
*1109 FILLER_0_10_197
*1110 FILLER_0_10_209
*1111 FILLER_0_10_221
*1112 FILLER_0_10_233
*1113 FILLER_0_10_245
*1114 FILLER_0_10_251
*1115 FILLER_0_10_253
*1116 FILLER_0_10_265
*1117 FILLER_0_10_27
*1118 FILLER_0_10_277
*1119 FILLER_0_10_289
*1120 FILLER_0_10_29
*1121 FILLER_0_10_3
*1122 FILLER_0_10_301
*1123 FILLER_0_10_307
*1124 FILLER_0_10_309
*1125 FILLER_0_10_321
*1126 FILLER_0_10_333
*1127 FILLER_0_10_41
*1128 FILLER_0_10_53
*1129 FILLER_0_10_65
*1130 FILLER_0_10_77
*1131 FILLER_0_10_83
*1132 FILLER_0_10_85
*1133 FILLER_0_10_89
*1134 FILLER_0_10_94
*1135 FILLER_0_11_135
*1136 FILLER_0_11_15
*1137 FILLER_0_11_157
*1138 FILLER_0_11_165
*1139 FILLER_0_11_169
*1140 FILLER_0_11_181
*1141 FILLER_0_11_193
*1142 FILLER_0_11_205
*1143 FILLER_0_11_217
*1144 FILLER_0_11_223
*1145 FILLER_0_11_225
*1146 FILLER_0_11_237
*1147 FILLER_0_11_249
*1148 FILLER_0_11_261
*1149 FILLER_0_11_27
*1150 FILLER_0_11_273
*1151 FILLER_0_11_279
*1152 FILLER_0_11_281
*1153 FILLER_0_11_293
*1154 FILLER_0_11_3
*1155 FILLER_0_11_305
*1156 FILLER_0_11_317
*1157 FILLER_0_11_329
*1158 FILLER_0_11_39
*1159 FILLER_0_11_51
*1160 FILLER_0_11_55
*1161 FILLER_0_11_57
*1162 FILLER_0_11_69
*1163 FILLER_0_11_81
*1164 FILLER_0_12_135
*1165 FILLER_0_12_139
*1166 FILLER_0_12_141
*1167 FILLER_0_12_147
*1168 FILLER_0_12_15
*1169 FILLER_0_12_182
*1170 FILLER_0_12_188
*1171 FILLER_0_12_193
*1172 FILLER_0_12_202
*1173 FILLER_0_12_214
*1174 FILLER_0_12_226
*1175 FILLER_0_12_238
*1176 FILLER_0_12_250
*1177 FILLER_0_12_253
*1178 FILLER_0_12_265
*1179 FILLER_0_12_27
*1180 FILLER_0_12_277
*1181 FILLER_0_12_289
*1182 FILLER_0_12_29
*1183 FILLER_0_12_3
*1184 FILLER_0_12_301
*1185 FILLER_0_12_307
*1186 FILLER_0_12_309
*1187 FILLER_0_12_321
*1188 FILLER_0_12_333
*1189 FILLER_0_12_41
*1190 FILLER_0_12_53
*1191 FILLER_0_12_65
*1192 FILLER_0_12_77
*1193 FILLER_0_12_83
*1194 FILLER_0_12_85
*1195 FILLER_0_13_135
*1196 FILLER_0_13_15
*1197 FILLER_0_13_165
*1198 FILLER_0_13_195
*1199 FILLER_0_13_206
*1200 FILLER_0_13_218
*1201 FILLER_0_13_225
*1202 FILLER_0_13_237
*1203 FILLER_0_13_249
*1204 FILLER_0_13_261
*1205 FILLER_0_13_27
*1206 FILLER_0_13_273
*1207 FILLER_0_13_279
*1208 FILLER_0_13_281
*1209 FILLER_0_13_293
*1210 FILLER_0_13_3
*1211 FILLER_0_13_305
*1212 FILLER_0_13_317
*1213 FILLER_0_13_329
*1214 FILLER_0_13_39
*1215 FILLER_0_13_51
*1216 FILLER_0_13_55
*1217 FILLER_0_13_57
*1218 FILLER_0_13_69
*1219 FILLER_0_13_81
*1220 FILLER_0_14_135
*1221 FILLER_0_14_139
*1222 FILLER_0_14_15
*1223 FILLER_0_14_187
*1224 FILLER_0_14_213
*1225 FILLER_0_14_225
*1226 FILLER_0_14_233
*1227 FILLER_0_14_242
*1228 FILLER_0_14_250
*1229 FILLER_0_14_253
*1230 FILLER_0_14_265
*1231 FILLER_0_14_27
*1232 FILLER_0_14_277
*1233 FILLER_0_14_289
*1234 FILLER_0_14_29
*1235 FILLER_0_14_3
*1236 FILLER_0_14_301
*1237 FILLER_0_14_307
*1238 FILLER_0_14_309
*1239 FILLER_0_14_321
*1240 FILLER_0_14_333
*1241 FILLER_0_14_41
*1242 FILLER_0_14_53
*1243 FILLER_0_14_65
*1244 FILLER_0_14_77
*1245 FILLER_0_14_83
*1246 FILLER_0_14_85
*1247 FILLER_0_15_135
*1248 FILLER_0_15_15
*1249 FILLER_0_15_167
*1250 FILLER_0_15_193
*1251 FILLER_0_15_197
*1252 FILLER_0_15_214
*1253 FILLER_0_15_222
*1254 FILLER_0_15_225
*1255 FILLER_0_15_237
*1256 FILLER_0_15_249
*1257 FILLER_0_15_261
*1258 FILLER_0_15_27
*1259 FILLER_0_15_273
*1260 FILLER_0_15_279
*1261 FILLER_0_15_281
*1262 FILLER_0_15_293
*1263 FILLER_0_15_3
*1264 FILLER_0_15_305
*1265 FILLER_0_15_317
*1266 FILLER_0_15_329
*1267 FILLER_0_15_39
*1268 FILLER_0_15_51
*1269 FILLER_0_15_55
*1270 FILLER_0_15_57
*1271 FILLER_0_15_69
*1272 FILLER_0_15_81
*1273 FILLER_0_16_135
*1274 FILLER_0_16_139
*1275 FILLER_0_16_15
*1276 FILLER_0_16_157
*1277 FILLER_0_16_187
*1278 FILLER_0_16_213
*1279 FILLER_0_16_225
*1280 FILLER_0_16_237
*1281 FILLER_0_16_249
*1282 FILLER_0_16_253
*1283 FILLER_0_16_265
*1284 FILLER_0_16_27
*1285 FILLER_0_16_277
*1286 FILLER_0_16_289
*1287 FILLER_0_16_29
*1288 FILLER_0_16_3
*1289 FILLER_0_16_301
*1290 FILLER_0_16_307
*1291 FILLER_0_16_309
*1292 FILLER_0_16_321
*1293 FILLER_0_16_333
*1294 FILLER_0_16_41
*1295 FILLER_0_16_53
*1296 FILLER_0_16_65
*1297 FILLER_0_16_77
*1298 FILLER_0_16_83
*1299 FILLER_0_16_85
*1300 FILLER_0_17_135
*1301 FILLER_0_17_15
*1302 FILLER_0_17_169
*1303 FILLER_0_17_190
*1304 FILLER_0_17_202
*1305 FILLER_0_17_210
*1306 FILLER_0_17_216
*1307 FILLER_0_17_225
*1308 FILLER_0_17_237
*1309 FILLER_0_17_249
*1310 FILLER_0_17_261