*SPEF "ieee 1481-1999"
*DESIGN "tt_um_triple_watchdog"
*DATE "09:19:49 Sunday April 14, 2024"
*VENDOR "The OpenROAD Project"
*PROGRAM "OpenROAD"
*VERSION "0889970d1790a2617e69f253221b8bd7626e51dc"
*DESIGN_FLOW "NAME_SCOPE LOCAL" "PIN_CAP NONE"
*DIVIDER /
*DELIMITER :
*BUS_DELIMITER []
*T_UNIT 1 NS
*C_UNIT 1 PF
*R_UNIT 1 OHM
*L_UNIT 1 HENRY

*NAME_MAP
*3 clk
*4 ena
*5 rst_n
*6 ui_in[0]
*7 ui_in[1]
*8 ui_in[2]
*9 ui_in[3]
*10 ui_in[4]
*11 ui_in[5]
*12 ui_in[6]
*13 ui_in[7]
*14 uio_in[0]
*15 uio_in[1]
*16 uio_in[2]
*17 uio_in[3]
*18 uio_in[4]
*19 uio_in[5]
*20 uio_in[6]
*21 uio_in[7]
*22 net27
*23 net28
*24 net29
*25 net30
*26 net31
*27 net32
*28 net33
*29 net34
*30 net35
*31 net36
*32 net37
*33 net38
*34 net39
*35 net40
*36 net41
*37 net42
*38 uo_out[0]
*39 uo_out[1]
*40 uo_out[2]
*41 net43
*42 net44
*43 net45
*44 net46
*45 net47
*46 _0000_
*47 _0001_
*48 _0002_
*49 _0003_
*50 _0004_
*51 _0005_
*52 _0006_
*53 _0007_
*54 _0008_
*55 _0009_
*56 _0010_
*57 _0011_
*58 _0012_
*59 _0013_
*60 _0014_
*61 _0015_
*62 _0016_
*63 _0017_
*64 _0018_
*65 _0019_
*66 _0020_
*67 _0021_
*68 _0022_
*69 _0023_
*70 _0024_
*71 _0025_
*72 _0026_
*73 _0027_
*74 _0028_
*75 _0029_
*76 _0030_
*77 _0031_
*78 _0032_
*79 _0033_
*80 _0034_
*81 _0035_
*82 _0036_
*83 _0037_
*84 _0038_
*85 _0039_
*86 _0040_
*87 _0041_
*88 _0042_
*89 _0043_
*90 _0044_
*91 _0045_
*92 _0046_
*93 _0047_
*94 _0048_
*95 _0049_
*96 _0050_
*97 _0051_
*98 _0052_
*99 _0053_
*100 _0054_
*101 _0055_
*102 _0056_
*103 _0057_
*104 _0058_
*105 _0059_
*106 _0060_
*107 _0061_
*108 _0062_
*109 _0063_
*110 _0064_
*111 _0065_
*112 _0066_
*113 _0067_
*114 _0068_
*115 _0069_
*116 _0070_
*117 _0071_
*118 _0072_
*119 _0073_
*120 _0074_
*121 _0075_
*122 _0076_
*123 _0077_
*124 _0078_
*125 _0079_
*126 _0080_
*127 _0081_
*128 _0082_
*129 _0083_
*130 _0084_
*131 _0085_
*132 _0086_
*133 _0087_
*134 _0088_
*135 _0089_
*136 _0090_
*137 _0091_
*138 _0092_
*139 _0093_
*140 _0094_
*141 _0095_
*142 _0096_
*143 _0097_
*144 _0098_
*145 _0099_
*146 _0100_
*147 _0101_
*148 _0102_
*149 _0103_
*150 _0104_
*151 _0105_
*152 _0106_
*153 _0107_
*154 _0108_
*155 _0109_
*156 _0110_
*157 _0111_
*158 _0112_
*159 _0113_
*160 _0114_
*161 _0115_
*162 _0116_
*163 _0117_
*164 _0118_
*165 _0119_
*166 _0120_
*167 _0121_
*168 _0122_
*169 _0123_
*170 _0124_
*171 _0125_
*172 _0126_
*173 _0127_
*174 _0128_
*175 _0129_
*176 _0130_
*177 _0131_
*178 _0132_
*179 _0133_
*180 _0134_
*181 _0135_
*182 _0136_
*183 _0137_
*184 _0138_
*185 _0139_
*186 _0140_
*187 _0141_
*188 _0142_
*189 _0143_
*190 _0144_
*191 _0145_
*192 _0146_
*193 _0147_
*194 _0148_
*195 _0149_
*196 _0150_
*197 _0151_
*198 _0152_
*199 _0153_
*200 _0154_
*201 _0155_
*202 _0156_
*203 _0157_
*204 _0158_
*205 _0159_
*206 _0160_
*207 _0161_
*208 _0162_
*209 _0163_
*210 _0164_
*211 _0165_
*212 _0166_
*213 _0167_
*214 _0168_
*215 _0169_
*216 _0170_
*217 _0171_
*218 _0172_
*219 _0173_
*220 _0174_
*221 _0175_
*222 _0176_
*223 _0177_
*224 _0178_
*225 _0179_
*226 _0180_
*227 _0181_
*228 _0182_
*229 _0183_
*230 _0184_
*231 _0185_
*232 _0186_
*233 _0187_
*234 _0188_
*235 _0189_
*236 _0190_
*237 _0191_
*238 _0192_
*239 _0193_
*240 _0194_
*241 _0195_
*242 _0196_
*243 _0197_
*244 _0198_
*245 _0199_
*246 _0200_
*247 _0201_
*248 _0202_
*249 _0203_
*250 _0204_
*251 _0205_
*252 _0206_
*253 _0207_
*254 _0208_
*255 _0209_
*256 _0210_
*257 _0211_
*258 _0212_
*259 _0213_
*260 _0214_
*261 _0215_
*262 _0216_
*263 _0217_
*264 _0218_
*265 _0219_
*266 _0220_
*267 _0221_
*268 _0222_
*269 _0223_
*270 _0224_
*271 _0225_
*272 _0226_
*273 _0227_
*274 _0228_
*275 _0229_
*276 _0230_
*277 _0231_
*278 _0232_
*279 _0233_
*280 _0234_
*281 _0235_
*282 _0236_
*283 _0237_
*284 _0238_
*285 _0239_
*286 _0240_
*287 _0241_
*288 _0242_
*289 _0243_
*290 _0244_
*291 _0245_
*292 _0246_
*293 _0247_
*294 _0248_
*295 _0249_
*296 _0250_
*297 _0251_
*298 _0252_
*299 _0253_
*300 _0254_
*301 _0255_
*302 _0256_
*303 _0257_
*304 _0258_
*305 _0259_
*306 _0260_
*307 _0261_
*308 _0262_
*309 _0263_
*310 _0264_
*311 _0265_
*312 _0266_
*313 _0267_
*314 _0268_
*315 _0269_
*316 _0270_
*317 _0271_
*318 _0272_
*319 _0273_
*320 _0274_
*321 _0275_
*322 _0276_
*323 _0277_
*324 _0278_
*325 _0279_
*326 _0280_
*327 _0281_
*328 _0282_
*329 _0283_
*330 _0284_
*331 _0285_
*332 _0286_
*333 _0287_
*334 _0288_
*335 _0289_
*336 _0290_
*337 _0291_
*338 _0292_
*339 _0293_
*340 _0294_
*341 _0295_
*342 _0296_
*343 _0297_
*344 _0298_
*345 _0299_
*346 _0300_
*347 _0301_
*348 _0302_
*349 _0303_
*350 _0304_
*351 _0305_
*352 _0306_
*353 _0307_
*354 _0308_
*355 _0309_
*356 _0310_
*357 _0311_
*358 _0312_
*359 _0313_
*360 _0314_
*361 _0315_
*362 _0316_
*363 _0317_
*364 _0318_
*365 _0319_
*366 _0320_
*367 _0321_
*368 _0322_
*369 _0323_
*370 _0324_
*371 _0325_
*372 _0326_
*373 _0327_
*374 _0328_
*375 _0329_
*376 _0330_
*377 _0331_
*378 _0332_
*379 _0333_
*380 _0334_
*381 _0335_
*382 _0336_
*383 _0337_
*384 _0338_
*385 _0339_
*386 _0340_
*387 _0341_
*388 _0342_
*389 _0343_
*390 _0344_
*391 _0345_
*392 _0346_
*393 _0347_
*394 _0348_
*395 _0349_
*396 _0350_
*397 _0351_
*398 _0352_
*399 _0353_
*400 _0354_
*401 _0355_
*402 _0356_
*403 _0357_
*404 _0358_
*405 _0359_
*406 _0360_
*407 _0361_
*408 _0362_
*409 _0363_
*410 _0364_
*411 _0365_
*412 _0366_
*413 _0367_
*414 _0368_
*415 _0369_
*416 _0370_
*417 _0371_
*418 _0372_
*419 _0373_
*420 _0374_
*421 _0375_
*422 _0376_
*423 _0377_
*424 _0378_
*425 _0379_
*426 _0380_
*427 _0381_
*428 _0382_
*429 _0383_
*430 _0384_
*431 _0385_
*432 _0386_
*433 _0387_
*434 _0388_
*435 _0389_
*436 _0390_
*437 _0391_
*438 _0392_
*439 _0393_
*440 _0394_
*441 _0395_
*442 _0396_
*443 _0397_
*444 _0398_
*445 _0399_
*446 _0400_
*447 _0401_
*448 _0402_
*449 _0403_
*450 _0404_
*451 _0405_
*452 _0406_
*453 _0407_
*454 _0408_
*455 _0409_
*456 _0410_
*457 _0411_
*458 _0412_
*459 _0413_
*460 _0414_
*461 _0415_
*462 _0416_
*463 _0417_
*464 _0418_
*465 _0419_
*466 _0420_
*467 _0421_
*468 _0422_
*469 _0423_
*470 _0424_
*471 _0425_
*472 _0426_
*473 _0427_
*474 _0428_
*475 _0429_
*476 _0430_
*477 _0431_
*478 _0432_
*479 _0433_
*480 _0434_
*481 _0435_
*482 _0436_
*483 _0437_
*484 _0438_
*485 _0439_
*486 _0440_
*487 _0441_
*488 _0442_
*489 _0443_
*490 _0444_
*491 _0445_
*492 _0446_
*493 _0447_
*494 _0448_
*495 _0449_
*496 _0450_
*497 _0451_
*498 _0452_
*499 _0453_
*500 _0454_
*501 _0455_
*502 _0456_
*503 _0457_
*504 _0458_
*505 _0459_
*506 _0460_
*507 _0461_
*508 _0462_
*509 _0463_
*510 _0464_
*511 _0465_
*512 _0466_
*513 _0467_
*514 _0468_
*515 _0469_
*516 _0470_
*517 _0471_
*518 _0472_
*519 _0473_
*520 _0474_
*521 _0475_
*522 _0476_
*523 _0477_
*524 _0478_
*525 _0479_
*526 _0480_
*527 _0481_
*528 _0482_
*529 _0483_
*530 _0484_
*531 _0485_
*532 _0486_
*533 _0487_
*534 _0488_
*535 _0489_
*536 _0490_
*537 _0491_
*538 _0492_
*539 _0493_
*540 _0494_
*541 _0495_
*542 _0496_
*543 _0497_
*544 _0498_
*545 _0499_
*546 _0500_
*547 _0501_
*548 _0502_
*549 _0503_
*550 _0504_
*551 _0505_
*552 _0506_
*553 _0507_
*554 _0508_
*555 _0509_
*556 _0510_
*557 _0511_
*558 _0512_
*559 _0513_
*560 _0514_
*561 _0515_
*562 _0516_
*563 _0517_
*564 _0518_
*565 _0519_
*566 _0520_
*567 _0521_
*568 _0522_
*569 _0523_
*570 _0524_
*571 clknet_0_clk
*572 clknet_4_0_0_clk
*573 clknet_4_10_0_clk
*574 clknet_4_11_0_clk
*575 clknet_4_12_0_clk
*576 clknet_4_13_0_clk
*577 clknet_4_14_0_clk
*578 clknet_4_15_0_clk
*579 clknet_4_1_0_clk
*580 clknet_4_2_0_clk
*581 clknet_4_3_0_clk
*582 clknet_4_4_0_clk
*583 clknet_4_5_0_clk
*584 clknet_4_6_0_clk
*585 clknet_4_7_0_clk
*586 clknet_4_8_0_clk
*587 clknet_4_9_0_clk
*588 net1
*589 net10
*590 net100
*591 net101
*592 net102
*593 net103
*594 net104
*595 net105
*596 net106
*597 net107
*598 net108
*599 net109
*600 net11
*601 net110
*602 net111
*603 net112
*604 net113
*605 net114
*606 net115
*607 net116
*608 net117
*609 net118
*610 net119
*611 net12
*612 net120
*613 net121
*614 net122
*615 net123
*616 net124
*617 net125
*618 net126
*619 net127
*620 net128
*621 net129
*622 net13
*623 net130
*624 net131
*625 net132
*626 net133
*627 net134
*628 net135
*629 net136
*630 net137
*631 net138
*632 net139
*633 net14
*634 net140
*635 net141
*636 net142
*637 net15
*638 net16
*639 net17
*640 net18
*641 net19
*642 net2
*643 net20
*644 net21
*645 net22
*646 net23
*647 net24
*648 net25
*649 net26
*650 net3
*651 net4
*652 net48
*653 net49
*654 net5
*655 net50
*656 net51
*657 net52
*658 net53
*659 net54
*660 net55
*661 net56
*662 net57
*663 net58
*664 net59
*665 net6
*666 net60
*667 net61
*668 net62
*669 net63
*670 net64
*671 net65
*672 net66
*673 net67
*674 net68
*675 net69
*676 net7
*677 net70
*678 net71
*679 net72
*680 net73
*681 net74
*682 net75
*683 net76
*684 net77
*685 net78
*686 net79
*687 net8
*688 net80
*689 net81
*690 net82
*691 net83
*692 net84
*693 net85
*694 net86
*695 net87
*696 net88
*697 net89
*698 net9
*699 net90
*700 net91
*701 net92
*702 net93
*703 net94
*704 net95
*705 net96
*706 net97
*707 net98
*708 net99
*709 watchdog1\.counter\[0\]
*710 watchdog1\.counter\[10\]
*711 watchdog1\.counter\[11\]
*712 watchdog1\.counter\[12\]
*713 watchdog1\.counter\[13\]
*714 watchdog1\.counter\[14\]
*715 watchdog1\.counter\[15\]
*716 watchdog1\.counter\[16\]
*717 watchdog1\.counter\[17\]
*718 watchdog1\.counter\[18\]
*719 watchdog1\.counter\[19\]
*720 watchdog1\.counter\[1\]
*721 watchdog1\.counter\[20\]
*722 watchdog1\.counter\[21\]
*723 watchdog1\.counter\[22\]
*724 watchdog1\.counter\[23\]
*725 watchdog1\.counter\[24\]
*726 watchdog1\.counter\[25\]
*727 watchdog1\.counter\[26\]
*728 watchdog1\.counter\[27\]
*729 watchdog1\.counter\[28\]
*730 watchdog1\.counter\[29\]
*731 watchdog1\.counter\[2\]
*732 watchdog1\.counter\[30\]
*733 watchdog1\.counter\[31\]
*734 watchdog1\.counter\[3\]
*735 watchdog1\.counter\[4\]
*736 watchdog1\.counter\[5\]
*737 watchdog1\.counter\[6\]
*738 watchdog1\.counter\[7\]
*739 watchdog1\.counter\[8\]
*740 watchdog1\.counter\[9\]
*741 watchdog1\.expired
*742 watchdog1\.state\[0\]
*743 watchdog1\.state\[1\]
*744 watchdog1\.ui_in_reg\[0\]
*745 watchdog1\.ui_in_reg\[1\]
*746 watchdog1\.ui_in_reg\[2\]
*747 watchdog1\.ui_in_reg\[3\]
*748 watchdog1\.ui_in_reg\[4\]
*749 watchdog1\.ui_in_reg\[5\]
*750 watchdog1\.ui_in_reg\[6\]
*751 watchdog1\.ui_in_reg\[7\]
*752 watchdog2\.counter\[0\]
*753 watchdog2\.counter\[10\]
*754 watchdog2\.counter\[11\]
*755 watchdog2\.counter\[12\]
*756 watchdog2\.counter\[13\]
*757 watchdog2\.counter\[14\]
*758 watchdog2\.counter\[15\]
*759 watchdog2\.counter\[16\]
*760 watchdog2\.counter\[17\]
*761 watchdog2\.counter\[18\]
*762 watchdog2\.counter\[19\]
*763 watchdog2\.counter\[1\]
*764 watchdog2\.counter\[20\]
*765 watchdog2\.counter\[21\]
*766 watchdog2\.counter\[22\]
*767 watchdog2\.counter\[23\]
*768 watchdog2\.counter\[24\]
*769 watchdog2\.counter\[25\]
*770 watchdog2\.counter\[26\]
*771 watchdog2\.counter\[27\]
*772 watchdog2\.counter\[28\]
*773 watchdog2\.counter\[29\]
*774 watchdog2\.counter\[2\]
*775 watchdog2\.counter\[30\]
*776 watchdog2\.counter\[31\]
*777 watchdog2\.counter\[3\]
*778 watchdog2\.counter\[4\]
*779 watchdog2\.counter\[5\]
*780 watchdog2\.counter\[6\]
*781 watchdog2\.counter\[7\]
*782 watchdog2\.counter\[8\]
*783 watchdog2\.counter\[9\]
*784 watchdog2\.expired
*785 watchdog2\.state\[0\]
*786 watchdog2\.state\[1\]
*787 watchdog2\.ui_in_reg\[0\]
*788 watchdog2\.ui_in_reg\[1\]
*789 watchdog2\.ui_in_reg\[2\]
*790 watchdog2\.ui_in_reg\[3\]
*791 watchdog2\.ui_in_reg\[4\]
*792 watchdog2\.ui_in_reg\[5\]
*793 watchdog2\.ui_in_reg\[6\]
*794 watchdog2\.ui_in_reg\[7\]
*795 watchdog3\.counter\[0\]
*796 watchdog3\.counter\[10\]
*797 watchdog3\.counter\[11\]
*798 watchdog3\.counter\[12\]
*799 watchdog3\.counter\[13\]
*800 watchdog3\.counter\[14\]
*801 watchdog3\.counter\[15\]
*802 watchdog3\.counter\[16\]
*803 watchdog3\.counter\[17\]
*804 watchdog3\.counter\[18\]
*805 watchdog3\.counter\[19\]
*806 watchdog3\.counter\[1\]
*807 watchdog3\.counter\[20\]
*808 watchdog3\.counter\[21\]
*809 watchdog3\.counter\[22\]
*810 watchdog3\.counter\[23\]
*811 watchdog3\.counter\[24\]
*812 watchdog3\.counter\[25\]
*813 watchdog3\.counter\[26\]
*814 watchdog3\.counter\[27\]
*815 watchdog3\.counter\[28\]
*816 watchdog3\.counter\[29\]
*817 watchdog3\.counter\[2\]
*818 watchdog3\.counter\[30\]
*819 watchdog3\.counter\[31\]
*820 watchdog3\.counter\[3\]
*821 watchdog3\.counter\[4\]
*822 watchdog3\.counter\[5\]
*823 watchdog3\.counter\[6\]
*824 watchdog3\.counter\[7\]
*825 watchdog3\.counter\[8\]
*826 watchdog3\.counter\[9\]
*827 watchdog3\.expired
*828 watchdog3\.state\[0\]
*829 watchdog3\.state\[1\]
*830 watchdog3\.ui_in_reg\[0\]
*831 watchdog3\.ui_in_reg\[1\]
*832 watchdog3\.ui_in_reg\[2\]
*833 watchdog3\.ui_in_reg\[3\]
*834 watchdog3\.ui_in_reg\[4\]
*835 watchdog3\.ui_in_reg\[5\]
*836 watchdog3\.ui_in_reg\[6\]
*837 watchdog3\.ui_in_reg\[7\]
*838 FILLER_0_0_109
*839 FILLER_0_0_113
*840 FILLER_0_0_125
*841 FILLER_0_0_137
*842 FILLER_0_0_141
*843 FILLER_0_0_15
*844 FILLER_0_0_153
*845 FILLER_0_0_165
*846 FILLER_0_0_169
*847 FILLER_0_0_181
*848 FILLER_0_0_193
*849 FILLER_0_0_197
*850 FILLER_0_0_209
*851 FILLER_0_0_221
*852 FILLER_0_0_225
*853 FILLER_0_0_237
*854 FILLER_0_0_249
*855 FILLER_0_0_253
*856 FILLER_0_0_265
*857 FILLER_0_0_27
*858 FILLER_0_0_277
*859 FILLER_0_0_281
*860 FILLER_0_0_29
*861 FILLER_0_0_293
*862 FILLER_0_0_3
*863 FILLER_0_0_305
*864 FILLER_0_0_309
*865 FILLER_0_0_321
*866 FILLER_0_0_333
*867 FILLER_0_0_41
*868 FILLER_0_0_53
*869 FILLER_0_0_57
*870 FILLER_0_0_69
*871 FILLER_0_0_81
*872 FILLER_0_0_85
*873 FILLER_0_0_97
*874 FILLER_0_10_128
*875 FILLER_0_10_141
*876 FILLER_0_10_149
*877 FILLER_0_10_15
*878 FILLER_0_10_170
*879 FILLER_0_10_176
*880 FILLER_0_10_193
*881 FILLER_0_10_197
*882 FILLER_0_10_209
*883 FILLER_0_10_213
*884 FILLER_0_10_238
*885 FILLER_0_10_249
*886 FILLER_0_10_253
*887 FILLER_0_10_27
*888 FILLER_0_10_279
*889 FILLER_0_10_29
*890 FILLER_0_10_291
*891 FILLER_0_10_3
*892 FILLER_0_10_303
*893 FILLER_0_10_307
*894 FILLER_0_10_333
*895 FILLER_0_10_41
*896 FILLER_0_10_47
*897 FILLER_0_10_56
*898 FILLER_0_10_65
*899 FILLER_0_10_82
*900 FILLER_0_10_85
*901 FILLER_0_11_109
*902 FILLER_0_11_113
*903 FILLER_0_11_125
*904 FILLER_0_11_133
*905 FILLER_0_11_143
*906 FILLER_0_11_15
*907 FILLER_0_11_153
*908 FILLER_0_11_161
*909 FILLER_0_11_169
*910 FILLER_0_11_214
*911 FILLER_0_11_252
*912 FILLER_0_11_27
*913 FILLER_0_11_273
*914 FILLER_0_11_279
*915 FILLER_0_11_281
*916 FILLER_0_11_3
*917 FILLER_0_11_325
*918 FILLER_0_11_333
*919 FILLER_0_11_39
*920 FILLER_0_11_51
*921 FILLER_0_11_65
*922 FILLER_0_11_85
*923 FILLER_0_11_97
*924 FILLER_0_12_109
*925 FILLER_0_12_121
*926 FILLER_0_12_136
*927 FILLER_0_12_15
*928 FILLER_0_12_194
*929 FILLER_0_12_209
*930 FILLER_0_12_213
*931 FILLER_0_12_27
*932 FILLER_0_12_273
*933 FILLER_0_12_285
*934 FILLER_0_12_297
*935 FILLER_0_12_3
*936 FILLER_0_12_320
*937 FILLER_0_12_332
*938 FILLER_0_12_83
*939 FILLER_0_12_85
*940 FILLER_0_12_97
*941 FILLER_0_13_110
*942 FILLER_0_13_146
*943 FILLER_0_13_15
*944 FILLER_0_13_158
*945 FILLER_0_13_166
*946 FILLER_0_13_207
*947 FILLER_0_13_219
*948 FILLER_0_13_223
*949 FILLER_0_13_225
*950 FILLER_0_13_233
*951 FILLER_0_13_240
*952 FILLER_0_13_252
*953 FILLER_0_13_27
*954 FILLER_0_13_277
*955 FILLER_0_13_281
*956 FILLER_0_13_293
*957 FILLER_0_13_3
*958 FILLER_0_13_333
*959 FILLER_0_13_39
*960 FILLER_0_13_47
*961 FILLER_0_13_72
*962 FILLER_0_13_86
*963 FILLER_0_14_106
*964 FILLER_0_14_110
*965 FILLER_0_14_141
*966 FILLER_0_14_15
*967 FILLER_0_14_153
*968 FILLER_0_14_165
*969 FILLER_0_14_183
*970 FILLER_0_14_195
*971 FILLER_0_14_197
*972 FILLER_0_14_209
*973 FILLER_0_14_230
*974 FILLER_0_14_242
*975 FILLER_0_14_246
*976 FILLER_0_14_253
*977 FILLER_0_14_27
*978 FILLER_0_14_274
*979 FILLER_0_14_29
*980 FILLER_0_14_3
*981 FILLER_0_14_306
*982 FILLER_0_14_41
*983 FILLER_0_14_49
*984 FILLER_0_15_113
*985 FILLER_0_15_121
*986 FILLER_0_15_126
*987 FILLER_0_15_15
*988 FILLER_0_15_152
*989 FILLER_0_15_159
*990 FILLER_0_15_167
*991 FILLER_0_15_169
*992 FILLER_0_15_184
*993 FILLER_0_15_196
*994 FILLER_0_15_236
*995 FILLER_0_15_244
*996 FILLER_0_15_27
*997 FILLER_0_15_275
*998 FILLER_0_15_289
*999 FILLER_0_15_3
*1000 FILLER_0_15_307
*1001 FILLER_0_15_318
*1002 FILLER_0_15_327
*1003 FILLER_0_15_39
*1004 FILLER_0_15_51
*1005 FILLER_0_15_55
*1006 FILLER_0_15_57
*1007 FILLER_0_15_65
*1008 FILLER_0_15_84
*1009 FILLER_0_15_88
*1010 FILLER_0_16_103
*1011 FILLER_0_16_115
*1012 FILLER_0_16_123
*1013 FILLER_0_16_15
*1014 FILLER_0_16_157
*1015 FILLER_0_16_165
*1016 FILLER_0_16_194
*1017 FILLER_0_16_202
*1018 FILLER_0_16_224
*1019 FILLER_0_16_251
*1020 FILLER_0_16_253
*1021 FILLER_0_16_27
*1022 FILLER_0_16_29
*1023 FILLER_0_16_291
*1024 FILLER_0_16_3
*1025 FILLER_0_16_333
*1026 FILLER_0_16_41
*1027 FILLER_0_16_49
*1028 FILLER_0_16_75
*1029 FILLER_0_16_83
*1030 FILLER_0_16_94
*1031 FILLER_0_17_109
*1032 FILLER_0_17_113
*1033 FILLER_0_17_121
*1034 FILLER_0_17_15
*1035 FILLER_0_17_160
*1036 FILLER_0_17_192
*1037 FILLER_0_17_204
*1038 FILLER_0_17_217
*1039 FILLER_0_17_223
*1040 FILLER_0_17_27
*1041 FILLER_0_17_277
*1042 FILLER_0_17_281
*1043 FILLER_0_17_3
*1044 FILLER_0_17_316
*1045 FILLER_0_17_320
*1046 FILLER_0_17_329
*1047 FILLER_0_17_39
*1048 FILLER_0_17_51
*1049 FILLER_0_17_55
*1050 FILLER_0_17_57
*1051 FILLER_0_17_62
*1052 FILLER_0_18_111
*1053 FILLER_0_18_122
*1054 FILLER_0_18_128
*1055 FILLER_0_18_136
*1056 FILLER_0_18_147
*1057 FILLER_0_18_15
*1058 FILLER_0_18_159
*1059 FILLER_0_18_167
*1060 FILLER_0_18_194
*1061 FILLER_0_18_197
*1062 FILLER_0_18_209
*1063 FILLER_0_18_220
*1064 FILLER_0_18_232
*1065 FILLER_0_18_240
*1066 FILLER_0_18_27
*1067 FILLER_0_18_274
*1068 FILLER_0_18_282
*1069 FILLER_0_18_29
*1070 FILLER_0_18_3
*1071 FILLER_0_18_312
*1072 FILLER_0_18_333
*1073 FILLER_0_18_41
*1074 FILLER_0_18_53
*1075 FILLER_0_18_65
*1076 FILLER_0_18_77
*1077 FILLER_0_18_83
*1078 FILLER_0_18_85
*1079 FILLER_0_19_121
*1080 FILLER_0_19_15
*1081 FILLER_0_19_156
*1082 FILLER_0_19_169
*1083 FILLER_0_19_184
*1084 FILLER_0_19_196
*1085 FILLER_0_19_202
*1086 FILLER_0_19_223
*1087 FILLER_0_19_230
*1088 FILLER_0_19_242
*1089 FILLER_0_19_27
*1090 FILLER_0_19_277
*1091 FILLER_0_19_281
*1092 FILLER_0_19_287
*1093 FILLER_0_19_3
*1094 FILLER_0_19_321
*1095 FILLER_0_19_330
*1096 FILLER_0_19_334
*1097 FILLER_0_19_39
*1098 FILLER_0_19_51
*1099 FILLER_0_19_55
*1100 FILLER_0_19_57
*1101 FILLER_0_19_69
*1102 FILLER_0_19_81
*1103 FILLER_0_19_89
*1104 FILLER_0_1_105
*1105 FILLER_0_1_111
*1106 FILLER_0_1_113
*1107 FILLER_0_1_125
*1108 FILLER_0_1_137
*1109 FILLER_0_1_149
*1110 FILLER_0_1_15
*1111 FILLER_0_1_161
*1112 FILLER_0_1_167
*1113 FILLER_0_1_169
*1114 FILLER_0_1_181
*1115 FILLER_0_1_193
*1116 FILLER_0_1_205
*1117 FILLER_0_1_217
*1118 FILLER_0_1_223
*1119 FILLER_0_1_225
*1120 FILLER_0_1_237
*1121 FILLER_0_1_249
*1122 FILLER_0_1_261
*1123 FILLER_0_1_27
*1124 FILLER_0_1_273
*1125 FILLER_0_1_279
*1126 FILLER_0_1_281
*1127 FILLER_0_1_293
*1128 FILLER_0_1_3
*1129 FILLER_0_1_305
*1130 FILLER_0_1_317
*1131 FILLER_0_1_329
*1132 FILLER_0_1_39
*1133 FILLER_0_1_51
*1134 FILLER_0_1_55
*1135 FILLER_0_1_57
*1136 FILLER_0_1_69
*1137 FILLER_0_1_81
*1138 FILLER_0_1_93
*1139 FILLER_0_20_103
*1140 FILLER_0_20_115
*1141 FILLER_0_20_119
*1142 FILLER_0_20_15
*1143 FILLER_0_20_150
*1144 FILLER_0_20_159
*1145 FILLER_0_20_187
*1146 FILLER_0_20_195
*1147 FILLER_0_20_197
*1148 FILLER_0_20_209
*1149 FILLER_0_20_244
*1150 FILLER_0_20_253
*1151 FILLER_0_20_27
*1152 FILLER_0_20_274
*1153 FILLER_0_20_286
*1154 FILLER_0_20_298
*1155 FILLER_0_20_3
*1156 FILLER_0_20_306
*1157 FILLER_0_20_309
*1158 FILLER_0_20_319
*1159 FILLER_0_20_32
*1160 FILLER_0_20_331
*1161 FILLER_0_20_44
*1162 FILLER_0_20_72
*1163 FILLER_0_20_81
*1164 FILLER_0_20_85
*1165 FILLER_0_20_97
*1166 FILLER_0_21_113
*1167 FILLER_0_21_125
*1168 FILLER_0_21_157
*1169 FILLER_0_21_189
*1170 FILLER_0_21_201
*1171 FILLER_0_21_205
*1172 FILLER_0_21_233
*1173 FILLER_0_21_245
*1174 FILLER_0_21_257
*1175 FILLER_0_21_275
*1176 FILLER_0_21_279
*1177 FILLER_0_21_281
*1178 FILLER_0_21_289
*1179 FILLER_0_21_293
*1180 FILLER_0_21_298
*1181 FILLER_0_21_3
*1182 FILLER_0_21_311
*1183 FILLER_0_21_333
*1184 FILLER_0_21_48
*1185 FILLER_0_21_57
*1186 FILLER_0_21_7
*1187 FILLER_0_21_90
*1188 FILLER_0_22_122
*1189 FILLER_0_22_134
*1190 FILLER_0_22_145
*1191 FILLER_0_22_157
*1192 FILLER_0_22_165
*1193 FILLER_0_22_193
*1194 FILLER_0_22_197
*1195 FILLER_0_22_234
*1196 FILLER_0_22_24
*1197 FILLER_0_22_241
*1198 FILLER_0_22_249
*1199 FILLER_0_22_256
*1200 FILLER_0_22_271
*1201 FILLER_0_22_277
*1202 FILLER_0_22_282
*1203 FILLER_0_22_29
*1204 FILLER_0_22_290
*1205 FILLER_0_22_3
*1206 FILLER_0_22_329
*1207 FILLER_0_22_38
*1208 FILLER_0_22_53
*1209 FILLER_0_22_57
*1210 FILLER_0_22_66
*1211 FILLER_0_22_85
*1212 FILLER_0_23_108
*1213 FILLER_0_23_11
*1214 FILLER_0_23_124
*1215 FILLER_0_23_146
*1216 FILLER_0_23_158
*1217 FILLER_0_23_197
*1218 FILLER_0_23_222
*1219 FILLER_0_23_246
*1220 FILLER_0_23_272
*1221 FILLER_0_23_281
*1222 FILLER_0_23_3
*1223 FILLER_0_23_305
*1224 FILLER_0_23_316
*1225 FILLER_0_23_320
*1226 FILLER_0_23_329
*1227 FILLER_0_23_57
*1228 FILLER_0_23_88
*1229 FILLER_0_24_123
*1230 FILLER_0_24_135
*1231 FILLER_0_24_139
*1232 FILLER_0_24_149
*1233 FILLER_0_24_192
*1234 FILLER_0_24_197
*1235 FILLER_0_24_212
*1236 FILLER_0_24_23
*1237 FILLER_0_24_244
*1238 FILLER_0_24_253
*1239 FILLER_0_24_259
*1240 FILLER_0_24_27
*1241 FILLER_0_24_295
*1242 FILLER_0_24_3
*1243 FILLER_0_24_307
*1244 FILLER_0_24_309
*1245 FILLER_0_24_32
*1246 FILLER_0_24_42
*1247 FILLER_0_24_48
*1248 FILLER_0_24_56
*1249 FILLER_0_24_65
*1250 FILLER_0_24_81
*1251 FILLER_0_24_85
*1252 FILLER_0_24_97
*1253 FILLER_0_25_108
*1254 FILLER_0_25_128
*1255 FILLER_0_25_15
*1256 FILLER_0_25_150
*1257 FILLER_0_25_158
*1258 FILLER_0_25_166
*1259 FILLER_0_25_204
*1260 FILLER_0_25_216
*1261 FILLER_0_25_225
*1262 FILLER_0_25_237
*1263 FILLER_0_25_249
*1264 FILLER_0_25_261
*1265 FILLER_0_25_265
*1266 FILLER_0_25_271
*1267 FILLER_0_25_281
*1268 FILLER_0_25_287
*1269 FILLER_0_25_3
*1270 FILLER_0_25_325
*1271 FILLER_0_25_333
*1272 FILLER_0_25_40
*1273 FILLER_0_25_48
*1274 FILLER_0_25_52
*1275 FILLER_0_25_57
*1276 FILLER_0_25_95
*1277 FILLER_0_25_99
*1278 FILLER_0_26_131
*1279 FILLER_0_26_139
*1280 FILLER_0_26_141
*1281 FILLER_0_26_195
*1282 FILLER_0_26_211
*1283 FILLER_0_26_233
*1284 FILLER_0_26_241
*1285 FILLER_0_26_246
*1286 FILLER_0_26_284
*1287 FILLER_0_26_29
*1288 FILLER_0_26_290
*1289 FILLER_0_26_3
*1290 FILLER_0_26_317
*1291 FILLER_0_26_326
*1292 FILLER_0_26_334
*1293 FILLER_0_26_36
*1294 FILLER_0_26_46
*1295 FILLER_0_26_81
*1296 FILLER_0_27_158
*1297 FILLER_0_27_166
*1298 FILLER_0_27_169
*1299 FILLER_0_27_185
*1300 FILLER_0_27_222
*1301 FILLER_0_27_234
*1302 FILLER_0_27_265
*1303 FILLER_0_27_3
*1304 FILLER_0_27_304
*1305 FILLER_0_27_318
*1306 FILLER_0_27_330
*1307 FILLER_0_27_334
*1308 FILLER_0_27_43
*1309 FILLER_0_27_55
*1310 FILLER_0_27_7
*1311 FILLER_0_27_84
*1312 FILLER_0_27_90
*1313 FILLER_0_28_106
*1314 FILLER_0_28_121
*1315 FILLER_0_28_141
*1316 FILLER_0_28_147
*1317 FILLER_0_28_168
*1318 FILLER_0_28_181
*1319 FILLER_0_28_197
*1320 FILLER_0_28_207
*1321 FILLER_0_28_219
*1322 FILLER_0_28_229
*1323 FILLER_0_28_239
*1324 FILLER_0_28_251
*1325 FILLER_0_28_29
*1326 FILLER_0_28_291
*1327 FILLER_0_28_299
*1328 FILLER_0_28_3
*1329 FILLER_0_28_306
*1330 FILLER_0_28_329
*1331 FILLER_0_28_41
*1332 FILLER_0_28_53
*1333 FILLER_0_28_67
*1334 FILLER_0_28_79
*1335 FILLER_0_28_83
*1336 FILLER_0_28_85
*1337 FILLER_0_28_97
*1338 FILLER_0_29_101
*1339 FILLER_0_29_105
*1340 FILLER_0_29_113
*1341 FILLER_0_29_121
*1342 FILLER_0_29_127
*1343 FILLER_0_29_15
*1344 FILLER_0_29_157
*1345 FILLER_0_29_165
*1346 FILLER_0_29_169
*1347 FILLER_0_29_181
*1348 FILLER_0_29_202
*1349 FILLER_0_29_220
*1350 FILLER_0_29_225
*1351 FILLER_0_29_237
*1352 FILLER_0_29_249
*1353 FILLER_0_29_261
*1354 FILLER_0_29_277
*1355 FILLER_0_29_281
*1356 FILLER_0_29_293
*1357 FILLER_0_29_299
*1358 FILLER_0_29_3
*1359 FILLER_0_29_36
*1360 FILLER_0_29_47
*1361 FILLER_0_29_55
*1362 FILLER_0_29_60
*1363 FILLER_0_29_64
*1364 FILLER_0_29_70
*1365 FILLER_0_29_93
*1366 FILLER_0_2_109
*1367 FILLER_0_2_121
*1368 FILLER_0_2_133
*1369 FILLER_0_2_139
*1370 FILLER_0_2_141
*1371 FILLER_0_2_15
*1372 FILLER_0_2_153
*1373 FILLER_0_2_165
*1374 FILLER_0_2_177
*1375 FILLER_0_2_189
*1376 FILLER_0_2_195
*1377 FILLER_0_2_197
*1378 FILLER_0_2_209
*1379 FILLER_0_2_221
*1380 FILLER_0_2_233
*1381 FILLER_0_2_245
*1382 FILLER_0_2_251
*1383 FILLER_0_2_253
*1384 FILLER_0_2_265
*1385 FILLER_0_2_27
*1386 FILLER_0_2_277
*1387 FILLER_0_2_289
*1388 FILLER_0_2_29
*1389 FILLER_0_2_3
*1390 FILLER_0_2_301
*1391 FILLER_0_2_307
*1392 FILLER_0_2_309
*1393 FILLER_0_2_321
*1394 FILLER_0_2_333
*1395 FILLER_0_2_41
*1396 FILLER_0_2_53
*1397 FILLER_0_2_65
*1398 FILLER_0_2_77
*1399 FILLER_0_2_83
*1400 FILLER_0_2_85
*1401 FILLER_0_2_97
*1402 FILLER_0_30_107
*1403 FILLER_0_30_130
*1404 FILLER_0_30_139
*1405 FILLER_0_30_151
*1406 FILLER_0_30_157
*1407 FILLER_0_30_178
*1408 FILLER_0_30_190
*1409 FILLER_0_30_194
*1410 FILLER_0_30_218
*1411 FILLER_0_30_226
*1412 FILLER_0_30_232
*1413 FILLER_0_30_243
*1414 FILLER_0_30_251
*1415 FILLER_0_30_253
*1416 FILLER_0_30_265
*1417 FILLER_0_30_27
*1418 FILLER_0_30_277
*1419 FILLER_0_30_289
*1420 FILLER_0_30_3
*1421 FILLER_0_30_301
*1422 FILLER_0_30_307
*1423 FILLER_0_30_309
*1424 FILLER_0_30_333
*1425 FILLER_0_30_45
*1426 FILLER_0_30_56
*1427 FILLER_0_30_69
*1428 FILLER_0_30_90
*1429 FILLER_0_30_95
*1430 FILLER_0_31_100
*1431 FILLER_0_31_141
*1432 FILLER_0_31_145
*1433 FILLER_0_31_15
*1434 FILLER_0_31_165
*1435 FILLER_0_31_169
*1436 FILLER_0_31_177
*1437 FILLER_0_31_183
*1438 FILLER_0_31_213
*1439 FILLER_0_31_221
*1440 FILLER_0_31_262
*1441 FILLER_0_31_272
*1442 FILLER_0_31_288
*1443 FILLER_0_31_296
*1444 FILLER_0_31_3
*1445 FILLER_0_31_306
*1446 FILLER_0_31_318
*1447 FILLER_0_31_330
*1448 FILLER_0_31_334
*1449 FILLER_0_31_55
*1450 FILLER_0_31_93
*1451 FILLER_0_32_136
*1452 FILLER_0_32_141
*1453 FILLER_0_32_147
*1454 FILLER_0_32_156
*1455 FILLER_0_32_168
*1456 FILLER_0_32_180
*1457 FILLER_0_32_186
*1458 FILLER_0_32_190
*1459 FILLER_0_32_206
*1460 FILLER_0_32_218
*1461 FILLER_0_32_24
*1462 FILLER_0_32_246
*1463 FILLER_0_32_253
*1464 FILLER_0_32_294
*1465 FILLER_0_32_3
*1466 FILLER_0_32_305
*1467 FILLER_0_32_309
*1468 FILLER_0_32_314
*1469 FILLER_0_32_326
*1470 FILLER_0_32_334
*1471 FILLER_0_32_49
*1472 FILLER_0_32_82
*1473 FILLER_0_32_85
*1474 FILLER_0_32_97
*1475 FILLER_0_33_110
*1476 FILLER_0_33_131
*1477 FILLER_0_33_143
*1478 FILLER_0_33_15
*1479 FILLER_0_33_166
*1480 FILLER_0_33_169
*1481 FILLER_0_33_181
*1482 FILLER_0_33_193
*1483 FILLER_0_33_205
*1484 FILLER_0_33_217
*1485 FILLER_0_33_223
*1486 FILLER_0_33_228
*1487 FILLER_0_33_23
*1488 FILLER_0_33_238
*1489 FILLER_0_33_250
*1490 FILLER_0_33_262
*1491 FILLER_0_33_269
*1492 FILLER_0_33_279
*1493 FILLER_0_33_281
*1494 FILLER_0_33_294
*1495 FILLER_0_33_3
*1496 FILLER_0_33_333
*1497 FILLER_0_33_34
*1498 FILLER_0_33_46
*1499 FILLER_0_33_54
*1500 FILLER_0_33_57
*1501 FILLER_0_33_69
*1502 FILLER_0_33_81
*1503 FILLER_0_33_98
*1504 FILLER_0_34_104
*1505 FILLER_0_34_116
*1506 FILLER_0_34_128
*1507 FILLER_0_34_137
*1508 FILLER_0_34_141
*1509 FILLER_0_34_15
*1510 FILLER_0_34_155
*1511 FILLER_0_34_169
*1512 FILLER_0_34_181
*1513 FILLER_0_34_185
*1514 FILLER_0_34_189
*1515 FILLER_0_34_197
*1516 FILLER_0_34_205
*1517 FILLER_0_34_214
*1518 FILLER_0_34_226
*1519 FILLER_0_34_238
*1520 FILLER_0_34_24
*1521 FILLER_0_34_250
*1522 FILLER_0_34_253
*1523 FILLER_0_34_265
*1524 FILLER_0_34_29
*1525 FILLER_0_34_3
*1526 FILLER_0_34_309
*1527 FILLER_0_34_331
*1528 FILLER_0_34_44
*1529 FILLER_0_34_56
*1530 FILLER_0_34_68
*1531 FILLER_0_34_83
*1532 FILLER_0_34_85
*1533 FILLER_0_35_107
*1534 FILLER_0_35_11
*1535 FILLER_0_35_111
*1536 FILLER_0_35_121
*1537 FILLER_0_35_133
*1538 FILLER_0_35_142
*1539 FILLER_0_35_173
*1540 FILLER_0_35_179
*1541 FILLER_0_35_218
*1542 FILLER_0_35_225
*1543 FILLER_0_35_240
*1544 FILLER_0_35_270
*1545 FILLER_0_35_274
*1546 FILLER_0_35_278
*1547 FILLER_0_35_288
*1548 FILLER_0_35_3
*1549 FILLER_0_35_300
*1550 FILLER_0_35_312
*1551 FILLER_0_35_324
*1552 FILLER_0_35_332
*1553 FILLER_0_35_48
*1554 FILLER_0_35_57
*1555 FILLER_0_35_65
*1556 FILLER_0_35_86
*1557 FILLER_0_35_93
*1558 FILLER_0_36_115
*1559 FILLER_0_36_149
*1560 FILLER_0_36_15
*1561 FILLER_0_36_174
*1562 FILLER_0_36_186
*1563 FILLER_0_36_217
*1564 FILLER_0_36_247
*1565 FILLER_0_36_251
*1566 FILLER_0_36_273
*1567 FILLER_0_36_285
*1568 FILLER_0_36_293
*1569 FILLER_0_36_3
*1570 FILLER_0_36_305
*1571 FILLER_0_36_309
*1572 FILLER_0_36_324
*1573 FILLER_0_36_332
*1574 FILLER_0_36_50
*1575 FILLER_0_36_58
*1576 FILLER_0_36_83
*1577 FILLER_0_36_91
*1578 FILLER_0_37_104
*1579 FILLER_0_37_113
*1580 FILLER_0_37_121
*1581 FILLER_0_37_151
*1582 FILLER_0_37_177
*1583 FILLER_0_37_220
*1584 FILLER_0_37_225
*1585 FILLER_0_37_236
*1586 FILLER_0_37_248
*1587 FILLER_0_37_277
*1588 FILLER_0_37_3
*1589 FILLER_0_37_312
*1590 FILLER_0_37_333
*1591 FILLER_0_37_54
*1592 FILLER_0_37_57
*1593 FILLER_0_37_65
*1594 FILLER_0_37_92
*1595 FILLER_0_38_10
*1596 FILLER_0_38_102
*1597 FILLER_0_38_106
*1598 FILLER_0_38_110
*1599 FILLER_0_38_113
*1600 FILLER_0_38_118
*1601 FILLER_0_38_122
*1602 FILLER_0_38_126
*1603 FILLER_0_38_14
*1604 FILLER_0_38_141
*1605 FILLER_0_38_153
*1606 FILLER_0_38_158
*1607 FILLER_0_38_162
*1608 FILLER_0_38_166
*1609 FILLER_0_38_173
*1610 FILLER_0_38_18
*1611 FILLER_0_38_185
*1612 FILLER_0_38_193
*1613 FILLER_0_38_197
*1614 FILLER_0_38_210
*1615 FILLER_0_38_22
*1616 FILLER_0_38_222
*1617 FILLER_0_38_225
*1618 FILLER_0_38_237
*1619 FILLER_0_38_249
*1620 FILLER_0_38_253
*1621 FILLER_0_38_263
*1622 FILLER_0_38_271
*1623 FILLER_0_38_279
*1624 FILLER_0_38_281
*1625 FILLER_0_38_287
*1626 FILLER_0_38_291
*1627 FILLER_0_38_307
*1628 FILLER_0_38_313
*1629 FILLER_0_38_334
*1630 FILLER_0_38_40
*1631 FILLER_0_38_50
*1632 FILLER_0_38_54
*1633 FILLER_0_38_57
*1634 FILLER_0_38_6
*1635 FILLER_0_38_62
*1636 FILLER_0_38_66
*1637 FILLER_0_38_73
*1638 FILLER_0_38_78
*1639 FILLER_0_38_88
*1640 FILLER_0_38_94
*1641 FILLER_0_38_98
*1642 FILLER_0_3_105
*1643 FILLER_0_3_111
*1644 FILLER_0_3_113
*1645 FILLER_0_3_125
*1646 FILLER_0_3_137
*1647 FILLER_0_3_149
*1648 FILLER_0_3_15
*1649 FILLER_0_3_161
*1650 FILLER_0_3_167
*1651 FILLER_0_3_169