*SPEF "ieee 1481-1999"
*DESIGN "tt_um_chisel_hello_schoeberl"
*DATE "21:38:33 Sunday April 14, 2024"
*VENDOR "The OpenROAD Project"
*PROGRAM "OpenROAD"
*VERSION "0889970d1790a2617e69f253221b8bd7626e51dc"
*DESIGN_FLOW "NAME_SCOPE LOCAL" "PIN_CAP NONE"
*DIVIDER /
*DELIMITER :
*BUS_DELIMITER []
*T_UNIT 1 NS
*C_UNIT 1 PF
*R_UNIT 1 OHM
*L_UNIT 1 HENRY

*NAME_MAP
*3 clk
*4 ena
*5 rst_n
*6 ui_in[0]
*7 ui_in[1]
*8 ui_in[2]
*9 ui_in[3]
*10 ui_in[4]
*11 ui_in[5]
*12 ui_in[6]
*13 ui_in[7]
*14 uio_in[0]
*15 uio_in[1]
*16 uio_in[2]
*17 uio_in[3]
*18 uio_in[4]
*19 uio_in[5]
*20 uio_in[6]
*21 uio_in[7]
*22 net3
*23 net4
*24 net5
*25 net6
*26 net7
*27 net8
*28 net9
*29 net10
*30 net11
*31 net12
*32 net13
*33 net14
*34 uio_out[4]
*35 net15
*36 net16
*37 net17
*38 uo_out[0]
*39 uo_out[1]
*40 uo_out[2]
*41 uo_out[3]
*42 uo_out[4]
*43 uo_out[5]
*44 uo_out[6]
*45 uo_out[7]
*46 ChiselTop\.cnt\[0\]
*47 ChiselTop\.cnt\[10\]
*48 ChiselTop\.cnt\[11\]
*49 ChiselTop\.cnt\[12\]
*50 ChiselTop\.cnt\[13\]
*51 ChiselTop\.cnt\[14\]
*52 ChiselTop\.cnt\[15\]
*53 ChiselTop\.cnt\[16\]
*54 ChiselTop\.cnt\[17\]
*55 ChiselTop\.cnt\[18\]
*56 ChiselTop\.cnt\[19\]
*57 ChiselTop\.cnt\[1\]
*58 ChiselTop\.cnt\[20\]
*59 ChiselTop\.cnt\[21\]
*60 ChiselTop\.cnt\[22\]
*61 ChiselTop\.cnt\[23\]
*62 ChiselTop\.cnt\[24\]
*63 ChiselTop\.cnt\[2\]
*64 ChiselTop\.cnt\[3\]
*65 ChiselTop\.cnt\[4\]
*66 ChiselTop\.cnt\[5\]
*67 ChiselTop\.cnt\[6\]
*68 ChiselTop\.cnt\[7\]
*69 ChiselTop\.cnt\[8\]
*70 ChiselTop\.cnt\[9\]
*71 ChiselTop\.dec\.counter\[0\]
*72 ChiselTop\.dec\.counter\[1\]
*73 ChiselTop\.dec\.counter\[2\]
*74 ChiselTop\.dec\.counter\[3\]
*75 ChiselTop\.ledReg
*76 ChiselTop\.morse\.audioCntReg\[0\]
*77 ChiselTop\.morse\.audioCntReg\[10\]
*78 ChiselTop\.morse\.audioCntReg\[11\]
*79 ChiselTop\.morse\.audioCntReg\[12\]
*80 ChiselTop\.morse\.audioCntReg\[13\]
*81 ChiselTop\.morse\.audioCntReg\[14\]
*82 ChiselTop\.morse\.audioCntReg\[15\]
*83 ChiselTop\.morse\.audioCntReg\[1\]
*84 ChiselTop\.morse\.audioCntReg\[2\]
*85 ChiselTop\.morse\.audioCntReg\[3\]
*86 ChiselTop\.morse\.audioCntReg\[4\]
*87 ChiselTop\.morse\.audioCntReg\[5\]
*88 ChiselTop\.morse\.audioCntReg\[6\]
*89 ChiselTop\.morse\.audioCntReg\[7\]
*90 ChiselTop\.morse\.audioCntReg\[8\]
*91 ChiselTop\.morse\.audioCntReg\[9\]
*92 ChiselTop\.morse\.cntReg\[0\]
*93 ChiselTop\.morse\.cntReg\[10\]
*94 ChiselTop\.morse\.cntReg\[11\]
*95 ChiselTop\.morse\.cntReg\[12\]
*96 ChiselTop\.morse\.cntReg\[13\]
*97 ChiselTop\.morse\.cntReg\[14\]
*98 ChiselTop\.morse\.cntReg\[15\]
*99 ChiselTop\.morse\.cntReg\[16\]
*100 ChiselTop\.morse\.cntReg\[17\]
*101 ChiselTop\.morse\.cntReg\[18\]
*102 ChiselTop\.morse\.cntReg\[19\]
*103 ChiselTop\.morse\.cntReg\[1\]
*104 ChiselTop\.morse\.cntReg\[20\]
*105 ChiselTop\.morse\.cntReg\[21\]
*106 ChiselTop\.morse\.cntReg\[22\]
*107 ChiselTop\.morse\.cntReg\[2\]
*108 ChiselTop\.morse\.cntReg\[3\]
*109 ChiselTop\.morse\.cntReg\[4\]
*110 ChiselTop\.morse\.cntReg\[5\]
*111 ChiselTop\.morse\.cntReg\[6\]
*112 ChiselTop\.morse\.cntReg\[7\]
*113 ChiselTop\.morse\.cntReg\[8\]
*114 ChiselTop\.morse\.cntReg\[9\]
*115 ChiselTop\.morse\.io_audio
*116 ChiselTop\.morse\.io_led
*117 ChiselTop\.morse\.regs_1
*118 ChiselTop\.morse\.regs_10
*119 ChiselTop\.morse\.regs_100
*120 ChiselTop\.morse\.regs_101
*121 ChiselTop\.morse\.regs_102
*122 ChiselTop\.morse\.regs_103
*123 ChiselTop\.morse\.regs_104
*124 ChiselTop\.morse\.regs_105
*125 ChiselTop\.morse\.regs_106
*126 ChiselTop\.morse\.regs_107
*127 ChiselTop\.morse\.regs_108
*128 ChiselTop\.morse\.regs_109
*129 ChiselTop\.morse\.regs_11
*130 ChiselTop\.morse\.regs_110
*131 ChiselTop\.morse\.regs_111
*132 ChiselTop\.morse\.regs_112
*133 ChiselTop\.morse\.regs_113
*134 ChiselTop\.morse\.regs_114
*135 ChiselTop\.morse\.regs_115
*136 ChiselTop\.morse\.regs_116
*137 ChiselTop\.morse\.regs_117
*138 ChiselTop\.morse\.regs_118
*139 ChiselTop\.morse\.regs_119
*140 ChiselTop\.morse\.regs_12
*141 ChiselTop\.morse\.regs_120
*142 ChiselTop\.morse\.regs_121
*143 ChiselTop\.morse\.regs_122
*144 ChiselTop\.morse\.regs_123
*145 ChiselTop\.morse\.regs_124
*146 ChiselTop\.morse\.regs_125
*147 ChiselTop\.morse\.regs_126
*148 ChiselTop\.morse\.regs_127
*149 ChiselTop\.morse\.regs_128
*150 ChiselTop\.morse\.regs_129
*151 ChiselTop\.morse\.regs_13
*152 ChiselTop\.morse\.regs_130
*153 ChiselTop\.morse\.regs_131
*154 ChiselTop\.morse\.regs_132
*155 ChiselTop\.morse\.regs_133
*156 ChiselTop\.morse\.regs_134
*157 ChiselTop\.morse\.regs_135
*158 ChiselTop\.morse\.regs_136
*159 ChiselTop\.morse\.regs_137
*160 ChiselTop\.morse\.regs_14
*161 ChiselTop\.morse\.regs_15
*162 ChiselTop\.morse\.regs_16
*163 ChiselTop\.morse\.regs_17
*164 ChiselTop\.morse\.regs_18
*165 ChiselTop\.morse\.regs_19
*166 ChiselTop\.morse\.regs_2
*167 ChiselTop\.morse\.regs_20
*168 ChiselTop\.morse\.regs_21
*169 ChiselTop\.morse\.regs_22
*170 ChiselTop\.morse\.regs_23
*171 ChiselTop\.morse\.regs_24
*172 ChiselTop\.morse\.regs_25
*173 ChiselTop\.morse\.regs_26
*174 ChiselTop\.morse\.regs_27
*175 ChiselTop\.morse\.regs_28
*176 ChiselTop\.morse\.regs_29
*177 ChiselTop\.morse\.regs_3
*178 ChiselTop\.morse\.regs_30
*179 ChiselTop\.morse\.regs_31
*180 ChiselTop\.morse\.regs_32
*181 ChiselTop\.morse\.regs_33
*182 ChiselTop\.morse\.regs_34
*183 ChiselTop\.morse\.regs_35
*184 ChiselTop\.morse\.regs_36
*185 ChiselTop\.morse\.regs_37
*186 ChiselTop\.morse\.regs_38
*187 ChiselTop\.morse\.regs_39
*188 ChiselTop\.morse\.regs_4
*189 ChiselTop\.morse\.regs_40
*190 ChiselTop\.morse\.regs_41
*191 ChiselTop\.morse\.regs_42
*192 ChiselTop\.morse\.regs_43
*193 ChiselTop\.morse\.regs_44
*194 ChiselTop\.morse\.regs_45
*195 ChiselTop\.morse\.regs_46
*196 ChiselTop\.morse\.regs_47
*197 ChiselTop\.morse\.regs_48
*198 ChiselTop\.morse\.regs_49
*199 ChiselTop\.morse\.regs_5
*200 ChiselTop\.morse\.regs_50
*201 ChiselTop\.morse\.regs_51
*202 ChiselTop\.morse\.regs_52
*203 ChiselTop\.morse\.regs_53
*204 ChiselTop\.morse\.regs_54
*205 ChiselTop\.morse\.regs_55
*206 ChiselTop\.morse\.regs_56
*207 ChiselTop\.morse\.regs_57
*208 ChiselTop\.morse\.regs_58
*209 ChiselTop\.morse\.regs_59
*210 ChiselTop\.morse\.regs_6
*211 ChiselTop\.morse\.regs_60
*212 ChiselTop\.morse\.regs_61
*213 ChiselTop\.morse\.regs_62
*214 ChiselTop\.morse\.regs_63
*215 ChiselTop\.morse\.regs_64
*216 ChiselTop\.morse\.regs_65
*217 ChiselTop\.morse\.regs_66
*218 ChiselTop\.morse\.regs_67
*219 ChiselTop\.morse\.regs_68
*220 ChiselTop\.morse\.regs_69
*221 ChiselTop\.morse\.regs_7
*222 ChiselTop\.morse\.regs_70
*223 ChiselTop\.morse\.regs_71
*224 ChiselTop\.morse\.regs_72
*225 ChiselTop\.morse\.regs_73
*226 ChiselTop\.morse\.regs_74
*227 ChiselTop\.morse\.regs_75
*228 ChiselTop\.morse\.regs_76
*229 ChiselTop\.morse\.regs_77
*230 ChiselTop\.morse\.regs_78
*231 ChiselTop\.morse\.regs_79
*232 ChiselTop\.morse\.regs_8
*233 ChiselTop\.morse\.regs_80
*234 ChiselTop\.morse\.regs_81
*235 ChiselTop\.morse\.regs_82
*236 ChiselTop\.morse\.regs_83
*237 ChiselTop\.morse\.regs_84
*238 ChiselTop\.morse\.regs_85
*239 ChiselTop\.morse\.regs_86
*240 ChiselTop\.morse\.regs_87
*241 ChiselTop\.morse\.regs_88
*242 ChiselTop\.morse\.regs_89
*243 ChiselTop\.morse\.regs_9
*244 ChiselTop\.morse\.regs_90
*245 ChiselTop\.morse\.regs_91
*246 ChiselTop\.morse\.regs_92
*247 ChiselTop\.morse\.regs_93
*248 ChiselTop\.morse\.regs_94
*249 ChiselTop\.morse\.regs_95
*250 ChiselTop\.morse\.regs_96
*251 ChiselTop\.morse\.regs_97
*252 ChiselTop\.morse\.regs_98
*253 ChiselTop\.morse\.regs_99
*254 ChiselTop\.morse\.toggleReg
*255 _0000_
*256 _0001_
*257 _0002_
*258 _0003_
*259 _0004_
*260 _0005_
*261 _0006_
*262 _0007_
*263 _0008_
*264 _0009_
*265 _0010_
*266 _0011_
*267 _0012_
*268 _0013_
*269 _0014_
*270 _0015_
*271 _0016_
*272 _0017_
*273 _0018_
*274 _0019_
*275 _0020_
*276 _0021_
*277 _0022_
*278 _0023_
*279 _0024_
*280 _0025_
*281 _0026_
*282 _0027_
*283 _0028_
*284 _0029_
*285 _0030_
*286 _0031_
*287 _0032_
*288 _0033_
*289 _0034_
*290 _0035_
*291 _0036_
*292 _0037_
*293 _0038_
*294 _0039_
*295 _0040_
*296 _0041_
*297 _0042_
*298 _0043_
*299 _0044_
*300 _0045_
*301 _0046_
*302 _0047_
*303 _0048_
*304 _0049_
*305 _0050_
*306 _0051_
*307 _0052_
*308 _0053_
*309 _0054_
*310 _0055_
*311 _0056_
*312 _0057_
*313 _0058_
*314 _0059_
*315 _0060_
*316 _0061_
*317 _0062_
*318 _0063_
*319 _0064_
*320 _0065_
*321 _0066_
*322 _0067_
*323 _0068_
*324 _0069_
*325 _0070_
*326 _0071_
*327 _0072_
*328 _0073_
*329 _0074_
*330 _0075_
*331 _0076_
*332 _0077_
*333 _0078_
*334 _0079_
*335 _0080_
*336 _0081_
*337 _0082_
*338 _0083_
*339 _0084_
*340 _0085_
*341 _0086_
*342 _0087_
*343 _0088_
*344 _0089_
*345 _0090_
*346 _0091_
*347 _0092_
*348 _0093_
*349 _0094_
*350 _0095_
*351 _0096_
*352 _0097_
*353 _0098_
*354 _0099_
*355 _0100_
*356 _0101_
*357 _0102_
*358 _0103_
*359 _0104_
*360 _0105_
*361 _0106_
*362 _0107_
*363 _0108_
*364 _0109_
*365 _0110_
*366 _0111_
*367 _0112_
*368 _0113_
*369 _0114_
*370 _0115_
*371 _0116_
*372 _0117_
*373 _0118_
*374 _0119_
*375 _0120_
*376 _0121_
*377 _0122_
*378 _0123_
*379 _0124_
*380 _0125_
*381 _0126_
*382 _0127_
*383 _0128_
*384 _0129_
*385 _0130_
*386 _0131_
*387 _0132_
*388 _0133_
*389 _0134_
*390 _0135_
*391 _0136_
*392 _0137_
*393 _0138_
*394 _0139_
*395 _0140_
*396 _0141_
*397 _0142_
*398 _0143_
*399 _0144_
*400 _0145_
*401 _0146_
*402 _0147_
*403 _0148_
*404 _0149_
*405 _0150_
*406 _0151_
*407 _0152_
*408 _0153_
*409 _0154_
*410 _0155_
*411 _0156_
*412 _0157_
*413 _0158_
*414 _0159_
*415 _0160_
*416 _0161_
*417 _0162_
*418 _0163_
*419 _0164_
*420 _0165_
*421 _0166_
*422 _0167_
*423 _0168_
*424 _0169_
*425 _0170_
*426 _0171_
*427 _0172_
*428 _0173_
*429 _0174_
*430 _0175_
*431 _0176_
*432 _0177_
*433 _0178_
*434 _0179_
*435 _0180_
*436 _0181_
*437 _0182_
*438 _0183_
*439 _0184_
*440 _0185_
*441 _0186_
*442 _0187_
*443 _0188_
*444 _0189_
*445 _0190_
*446 _0191_
*447 _0192_
*448 _0193_
*449 _0194_
*450 _0195_
*451 _0196_
*452 _0197_
*453 _0198_
*454 _0199_
*455 _0200_
*456 _0201_
*457 _0202_
*458 _0203_
*459 _0204_
*460 _0205_
*461 _0206_
*462 _0207_
*463 _0208_
*464 _0209_
*465 _0210_
*466 _0211_
*467 _0212_
*468 _0213_
*469 _0214_
*470 _0215_
*471 _0216_
*472 _0217_
*473 _0218_
*474 _0219_
*475 _0220_
*476 _0221_
*477 _0222_
*478 _0223_
*479 _0224_
*480 _0225_
*481 _0226_
*482 _0227_
*483 _0228_
*484 _0229_
*485 _0230_
*486 _0231_
*487 _0232_
*488 _0233_
*489 _0234_
*490 _0235_
*491 _0236_
*492 _0237_
*493 _0238_
*494 _0239_
*495 _0240_
*496 _0241_
*497 _0242_
*498 _0243_
*499 _0244_
*500 _0245_
*501 _0246_
*502 _0247_
*503 _0248_
*504 _0249_
*505 _0250_
*506 _0251_
*507 _0252_
*508 _0253_
*509 _0254_
*510 _0255_
*511 _0256_
*512 _0257_
*513 _0258_
*514 _0259_
*515 _0260_
*516 _0261_
*517 _0262_
*518 _0263_
*519 _0264_
*520 _0265_
*521 _0266_
*522 _0267_
*523 _0268_
*524 _0269_
*525 _0270_
*526 _0271_
*527 _0272_
*528 _0273_
*529 _0274_
*530 _0275_
*531 _0276_
*532 _0277_
*533 _0278_
*534 _0279_
*535 _0280_
*536 _0281_
*537 _0282_
*538 _0283_
*539 _0284_
*540 _0285_
*541 _0286_
*542 _0287_
*543 _0288_
*544 _0289_
*545 _0290_
*546 _0291_
*547 _0292_
*548 _0293_
*549 _0294_
*550 _0295_
*551 _0296_
*552 _0297_
*553 _0298_
*554 _0299_
*555 _0300_
*556 _0301_
*557 _0302_
*558 _0303_
*559 _0304_
*560 _0305_
*561 _0306_
*562 _0307_
*563 _0308_
*564 _0309_
*565 _0310_
*566 _0311_
*567 _0312_
*568 _0313_
*569 _0314_
*570 _0315_
*571 _0316_
*572 _0317_
*573 _0318_
*574 _0319_
*575 _0320_
*576 _0321_
*577 _0322_
*578 _0323_
*579 _0324_
*580 _0325_
*581 _0326_
*582 _0327_
*583 _0328_
*584 _0329_
*585 _0330_
*586 _0331_
*587 _0332_
*588 _0333_
*589 _0334_
*590 _0335_
*591 _0336_
*592 _0337_
*593 _0338_
*594 _0339_
*595 _0340_
*596 _0341_
*597 _0342_
*598 _0343_
*599 _0344_
*600 _0345_
*601 _0346_
*602 _0347_
*603 _0348_
*604 _0349_
*605 _0350_
*606 _0351_
*607 _0352_
*608 _0353_
*609 _0354_
*610 _0355_
*611 _0356_
*612 _0357_
*613 _0358_
*614 _0359_
*615 _0360_
*616 _0361_
*617 _0362_
*618 _0363_
*619 _0364_
*620 _0365_
*621 _0366_
*622 _0367_
*623 _0368_
*624 _0369_
*625 _0370_
*626 _0371_
*627 _0372_
*628 _0373_
*629 _0374_
*630 _0375_
*631 _0376_
*632 _0377_
*633 _0378_
*634 _0379_
*635 _0380_
*636 _0381_
*637 _0382_
*638 _0383_
*639 _0384_
*640 _0385_
*641 _0386_
*642 _0387_
*643 _0388_
*644 _0389_
*645 _0390_
*646 _0391_
*647 _0392_
*648 _0393_
*649 _0394_
*650 _0395_
*651 _0396_
*652 _0397_
*653 _0398_
*654 _0399_
*655 _0400_
*656 _0401_
*657 _0402_
*658 _0403_
*659 _0404_
*660 _0405_
*661 _0406_
*662 _0407_
*663 _0408_
*664 _0409_
*665 _0410_
*666 _0411_
*667 _0412_
*668 _0413_
*669 _0414_
*670 _0415_
*671 _0416_
*672 _0417_
*673 _0418_
*674 _0419_
*675 _0420_
*676 _0421_
*677 _0422_
*678 _0423_
*679 _0424_
*680 _0425_
*681 _0426_
*682 _0427_
*683 _0428_
*684 _0429_
*685 _0430_
*686 _0431_
*687 _0432_
*688 _0433_
*689 _0434_
*690 _0435_
*691 _0436_
*692 _0437_
*693 _0438_
*694 _0439_
*695 _0440_
*696 _0441_
*697 _0442_
*698 _0443_
*699 _0444_
*700 _0445_
*701 _0446_
*702 _0447_
*703 _0448_
*704 _0449_
*705 _0450_
*706 _0451_
*707 _0452_
*708 _0453_
*709 _0454_
*710 _0455_
*711 _0456_
*712 _0457_
*713 _0458_
*714 _0459_
*715 _0460_
*716 _0461_
*717 _0462_
*718 _0463_
*719 _0464_
*720 _0465_
*721 _0466_
*722 _0467_
*723 _0468_
*724 _0469_
*725 _0470_
*726 _0471_
*727 _0472_
*728 _0473_
*729 _0474_
*730 _0475_
*731 _0476_
*732 _0477_
*733 _0478_
*734 _0479_
*735 _0480_
*736 _0481_
*737 _0482_
*738 _0483_
*739 _0484_
*740 _0485_
*741 _0486_
*742 _0487_
*743 _0488_
*744 _0489_
*745 _0490_
*746 _0491_
*747 _0492_
*748 _0493_
*749 _0494_
*750 _0495_
*751 _0496_
*752 _0497_
*753 _0498_
*754 _0499_
*755 _0500_
*756 _0501_
*757 _0502_
*758 _0503_
*759 _0504_
*760 _0505_
*761 _0506_
*762 _0507_
*763 _0508_
*764 _0509_
*765 _0510_
*766 _0511_
*767 _0512_
*768 _0513_
*769 _0514_
*770 _0515_
*771 _0516_
*772 _0517_
*773 _0518_
*774 _0519_
*775 _0520_
*776 _0521_
*777 _0522_
*778 _0523_
*779 _0524_
*780 _0525_
*781 _0526_
*782 _0527_
*783 _0528_
*784 _0529_
*785 _0530_
*786 _0531_
*787 _0532_
*788 _0533_
*789 _0534_
*790 _0535_
*791 _0536_
*792 _0537_
*793 _0538_
*794 _0539_
*795 _0540_
*796 _0541_
*797 _0542_
*798 _0543_
*799 _0544_
*800 _0545_
*801 _0546_
*802 _0547_
*803 _0548_
*804 _0549_
*805 _0550_
*806 _0551_
*807 _0552_
*808 _0553_
*809 _0554_
*810 _0555_
*811 _0556_
*812 _0557_
*813 _0558_
*814 _0559_
*815 _0560_
*816 _0561_
*817 _0562_
*818 _0563_
*819 _0564_
*820 _0565_
*821 _0566_
*822 _0567_
*823 _0568_
*824 _0569_
*825 _0570_
*826 _0571_
*827 _0572_
*828 _0573_
*829 _0574_
*830 _0575_
*831 _0576_
*832 _0577_
*833 _0578_
*834 _0579_
*835 _0580_
*836 _0581_
*837 _0582_
*838 _0583_
*839 _0584_
*840 _0585_
*841 clknet_0_clk
*842 clknet_1_0__leaf_clk
*843 clknet_1_1__leaf_clk
*844 clknet_leaf_0_clk
*845 clknet_leaf_10_clk
*846 clknet_leaf_11_clk
*847 clknet_leaf_1_clk
*848 clknet_leaf_2_clk
*849 clknet_leaf_3_clk
*850 clknet_leaf_4_clk
*851 clknet_leaf_5_clk
*852 clknet_leaf_6_clk
*853 clknet_leaf_7_clk
*854 clknet_leaf_8_clk
*855 clknet_leaf_9_clk
*856 net1
*857 net100
*858 net101
*859 net102
*860 net103
*861 net104
*862 net105
*863 net106
*864 net107
*865 net108
*866 net109
*867 net110
*868 net111
*869 net112
*870 net113
*871 net114
*872 net115
*873 net116
*874 net117
*875 net118
*876 net119
*877 net120
*878 net121
*879 net122
*880 net123
*881 net124
*882 net125
*883 net126
*884 net127
*885 net128
*886 net129
*887 net130
*888 net131
*889 net132
*890 net133
*891 net134
*892 net135
*893 net136
*894 net137
*895 net138
*896 net139
*897 net140
*898 net141
*899 net142
*900 net143
*901 net144
*902 net145
*903 net146
*904 net147
*905 net148
*906 net149
*907 net150
*908 net151
*909 net152
*910 net153
*911 net154
*912 net155
*913 net156
*914 net157
*915 net158
*916 net159
*917 net160
*918 net161
*919 net162
*920 net163
*921 net164
*922 net165
*923 net166
*924 net167
*925 net168
*926 net169
*927 net170
*928 net171
*929 net172
*930 net173
*931 net174
*932 net175
*933 net176
*934 net177
*935 net178
*936 net179
*937 net18
*938 net180
*939 net181
*940 net182
*941 net183
*942 net184
*943 net185
*944 net186
*945 net187
*946 net188
*947 net189
*948 net19
*949 net190
*950 net191
*951 net192
*952 net193
*953 net194
*954 net195
*955 net196
*956 net197
*957 net198
*958 net199
*959 net2
*960 net20
*961 net200
*962 net201
*963 net202
*964 net203
*965 net204
*966 net205
*967 net206
*968 net207
*969 net208
*970 net209
*971 net21
*972 net210
*973 net211
*974 net212
*975 net213
*976 net214
*977 net215
*978 net216
*979 net217
*980 net218
*981 net219
*982 net22
*983 net220
*984 net221
*985 net222
*986 net223
*987 net224
*988 net225
*989 net226
*990 net227
*991 net228
*992 net229
*993 net23
*994 net230
*995 net231
*996 net232
*997 net233
*998 net234
*999 net235
*1000 net236
*1001 net237
*1002 net238
*1003 net239
*1004 net24
*1005 net240
*1006 net241
*1007 net242
*1008 net243
*1009 net244
*1010 net245
*1011 net246
*1012 net247
*1013 net248
*1014 net249
*1015 net25
*1016 net250
*1017 net251
*1018 net252
*1019 net253
*1020 net254
*1021 net255
*1022 net256
*1023 net257
*1024 net258
*1025 net259
*1026 net26
*1027 net260
*1028 net27
*1029 net28
*1030 net29
*1031 net30
*1032 net31
*1033 net32
*1034 net33
*1035 net34
*1036 net35
*1037 net36
*1038 net37
*1039 net38
*1040 net39
*1041 net40
*1042 net41
*1043 net42
*1044 net43
*1045 net44
*1046 net45
*1047 net46
*1048 net47
*1049 net48
*1050 net49
*1051 net50
*1052 net51
*1053 net52
*1054 net53
*1055 net54
*1056 net55
*1057 net56
*1058 net57
*1059 net58
*1060 net59
*1061 net60
*1062 net61
*1063 net62
*1064 net63
*1065 net64
*1066 net65
*1067 net66
*1068 net67
*1069 net68
*1070 net69
*1071 net70
*1072 net71
*1073 net72
*1074 net73
*1075 net74
*1076 net75
*1077 net76
*1078 net77
*1079 net78
*1080 net79
*1081 net80
*1082 net81
*1083 net82
*1084 net83
*1085 net84
*1086 net85
*1087 net86
*1088 net87
*1089 net88
*1090 net89
*1091 net90
*1092 net91
*1093 net92
*1094 net93
*1095 net94
*1096 net95
*1097 net96
*1098 net97
*1099 net98
*1100 net99
*1101 FILLER_0_0_105
*1102 FILLER_0_0_111
*1103 FILLER_0_0_113
*1104 FILLER_0_0_125
*1105 FILLER_0_0_137
*1106 FILLER_0_0_149
*1107 FILLER_0_0_15
*1108 FILLER_0_0_160
*1109 FILLER_0_0_183
*1110 FILLER_0_0_195
*1111 FILLER_0_0_197
*1112 FILLER_0_0_222
*1113 FILLER_0_0_233
*1114 FILLER_0_0_245
*1115 FILLER_0_0_251
*1116 FILLER_0_0_267
*1117 FILLER_0_0_27
*1118 FILLER_0_0_279
*1119 FILLER_0_0_281
*1120 FILLER_0_0_29
*1121 FILLER_0_0_293
*1122 FILLER_0_0_3
*1123 FILLER_0_0_305
*1124 FILLER_0_0_309
*1125 FILLER_0_0_321
*1126 FILLER_0_0_333
*1127 FILLER_0_0_41
*1128 FILLER_0_0_53
*1129 FILLER_0_0_57
*1130 FILLER_0_0_69
*1131 FILLER_0_0_79
*1132 FILLER_0_0_83
*1133 FILLER_0_0_93
*1134 FILLER_0_10_111
*1135 FILLER_0_10_128
*1136 FILLER_0_10_141
*1137 FILLER_0_10_15
*1138 FILLER_0_10_153
*1139 FILLER_0_10_157
*1140 FILLER_0_10_163
*1141 FILLER_0_10_210
*1142 FILLER_0_10_222
*1143 FILLER_0_10_228
*1144 FILLER_0_10_251
*1145 FILLER_0_10_261
*1146 FILLER_0_10_27
*1147 FILLER_0_10_288
*1148 FILLER_0_10_29
*1149 FILLER_0_10_296
*1150 FILLER_0_10_3
*1151 FILLER_0_10_307
*1152 FILLER_0_10_309
*1153 FILLER_0_10_333
*1154 FILLER_0_10_70
*1155 FILLER_0_10_85
*1156 FILLER_0_11_108
*1157 FILLER_0_11_143
*1158 FILLER_0_11_15
*1159 FILLER_0_11_169
*1160 FILLER_0_11_225
*1161 FILLER_0_11_229
*1162 FILLER_0_11_254
*1163 FILLER_0_11_27
*1164 FILLER_0_11_279
*1165 FILLER_0_11_289
*1166 FILLER_0_11_3
*1167 FILLER_0_11_309
*1168 FILLER_0_11_31
*1169 FILLER_0_11_334
*1170 FILLER_0_11_65
*1171 FILLER_0_11_99
*1172 FILLER_0_12_109
*1173 FILLER_0_12_136
*1174 FILLER_0_12_141
*1175 FILLER_0_12_15
*1176 FILLER_0_12_186
*1177 FILLER_0_12_221
*1178 FILLER_0_12_249
*1179 FILLER_0_12_253
*1180 FILLER_0_12_265
*1181 FILLER_0_12_27
*1182 FILLER_0_12_274
*1183 FILLER_0_12_3
*1184 FILLER_0_12_307
*1185 FILLER_0_12_333
*1186 FILLER_0_12_56
*1187 FILLER_0_13_101
*1188 FILLER_0_13_113
*1189 FILLER_0_13_15
*1190 FILLER_0_13_166
*1191 FILLER_0_13_225
*1192 FILLER_0_13_229
*1193 FILLER_0_13_259
*1194 FILLER_0_13_279
*1195 FILLER_0_13_286
*1196 FILLER_0_13_3
*1197 FILLER_0_13_302
*1198 FILLER_0_13_333
*1199 FILLER_0_13_43
*1200 FILLER_0_13_54
*1201 FILLER_0_13_81
*1202 FILLER_0_13_93
*1203 FILLER_0_14_106
*1204 FILLER_0_14_141
*1205 FILLER_0_14_15
*1206 FILLER_0_14_152
*1207 FILLER_0_14_160
*1208 FILLER_0_14_167
*1209 FILLER_0_14_221
*1210 FILLER_0_14_24
*1211 FILLER_0_14_261
*1212 FILLER_0_14_268
*1213 FILLER_0_14_285
*1214 FILLER_0_14_29
*1215 FILLER_0_14_3
*1216 FILLER_0_14_333
*1217 FILLER_0_14_53
*1218 FILLER_0_14_61
*1219 FILLER_0_14_85
*1220 FILLER_0_15_113
*1221 FILLER_0_15_131
*1222 FILLER_0_15_166
*1223 FILLER_0_15_214
*1224 FILLER_0_15_225
*1225 FILLER_0_15_258
*1226 FILLER_0_15_275
*1227 FILLER_0_15_279
*1228 FILLER_0_15_295
*1229 FILLER_0_15_3
*1230 FILLER_0_15_320
*1231 FILLER_0_15_331
*1232 FILLER_0_15_40
*1233 FILLER_0_15_49
*1234 FILLER_0_15_55
*1235 FILLER_0_15_57
*1236 FILLER_0_15_69
*1237 FILLER_0_15_99
*1238 FILLER_0_16_115
*1239 FILLER_0_16_124
*1240 FILLER_0_16_129
*1241 FILLER_0_16_139
*1242 FILLER_0_16_192
*1243 FILLER_0_16_197
*1244 FILLER_0_16_225
*1245 FILLER_0_16_250
*1246 FILLER_0_16_261
*1247 FILLER_0_16_289
*1248 FILLER_0_16_3
*1249 FILLER_0_16_309
*1250 FILLER_0_16_334
*1251 FILLER_0_16_53
*1252 FILLER_0_16_70
*1253 FILLER_0_16_78
*1254 FILLER_0_17_102
*1255 FILLER_0_17_110
*1256 FILLER_0_17_118
*1257 FILLER_0_17_130
*1258 FILLER_0_17_147
*1259 FILLER_0_17_151
*1260 FILLER_0_17_222
*1261 FILLER_0_17_225
*1262 FILLER_0_17_258
*1263 FILLER_0_17_265
*1264 FILLER_0_17_275
*1265 FILLER_0_17_279
*1266 FILLER_0_17_3
*1267 FILLER_0_17_321
*1268 FILLER_0_17_331
*1269 FILLER_0_17_39
*1270 FILLER_0_17_73
*1271 FILLER_0_17_85
*1272 FILLER_0_17_9
*1273 FILLER_0_18_106
*1274 FILLER_0_18_141
*1275 FILLER_0_18_15
*1276 FILLER_0_18_170
*1277 FILLER_0_18_182
*1278 FILLER_0_18_194
*1279 FILLER_0_18_20
*1280 FILLER_0_18_221
*1281 FILLER_0_18_229
*1282 FILLER_0_18_247
*1283 FILLER_0_18_25
*1284 FILLER_0_18_251
*1285 FILLER_0_18_267
*1286 FILLER_0_18_291
*1287 FILLER_0_18_299
*1288 FILLER_0_18_3
*1289 FILLER_0_18_309
*1290 FILLER_0_18_329
*1291 FILLER_0_18_41
*1292 FILLER_0_18_53
*1293 FILLER_0_18_71
*1294 FILLER_0_18_83
*1295 FILLER_0_18_85
*1296 FILLER_0_18_89
*1297 FILLER_0_18_96
*1298 FILLER_0_19_103
*1299 FILLER_0_19_139
*1300 FILLER_0_19_15
*1301 FILLER_0_19_165
*1302 FILLER_0_19_169
*1303 FILLER_0_19_181
*1304 FILLER_0_19_193
*1305 FILLER_0_19_223
*1306 FILLER_0_19_23
*1307 FILLER_0_19_269
*1308 FILLER_0_19_294
*1309 FILLER_0_19_3
*1310 FILLER_0_19_302
*1311 FILLER_0_19_327
*1312 FILLER_0_19_40
*1313 FILLER_0_19_52
*1314 FILLER_0_19_57
*1315 FILLER_0_19_68
*1316 FILLER_0_19_82
*1317 FILLER_0_1_107
*1318 FILLER_0_1_111
*1319 FILLER_0_1_113
*1320 FILLER_0_1_117
*1321 FILLER_0_1_134
*1322 FILLER_0_1_143
*1323 FILLER_0_1_15
*1324 FILLER_0_1_165
*1325 FILLER_0_1_201
*1326 FILLER_0_1_231
*1327 FILLER_0_1_246
*1328 FILLER_0_1_27
*1329 FILLER_0_1_279
*1330 FILLER_0_1_281
*1331 FILLER_0_1_293
*1332 FILLER_0_1_3
*1333 FILLER_0_1_305
*1334 FILLER_0_1_313
*1335 FILLER_0_1_323
*1336 FILLER_0_1_39
*1337 FILLER_0_1_51
*1338 FILLER_0_1_55
*1339 FILLER_0_1_57
*1340 FILLER_0_1_65
*1341 FILLER_0_1_82
*1342 FILLER_0_20_114
*1343 FILLER_0_20_138
*1344 FILLER_0_20_185
*1345 FILLER_0_20_194
*1346 FILLER_0_20_197
*1347 FILLER_0_20_219
*1348 FILLER_0_20_22
*1349 FILLER_0_20_241
*1350 FILLER_0_20_250
*1351 FILLER_0_20_267
*1352 FILLER_0_20_3
*1353 FILLER_0_20_330
*1354 FILLER_0_20_334
*1355 FILLER_0_20_45
*1356 FILLER_0_20_55
*1357 FILLER_0_20_81
*1358 FILLER_0_20_90
*1359 FILLER_0_21_106
*1360 FILLER_0_21_113
*1361 FILLER_0_21_133
*1362 FILLER_0_21_183
*1363 FILLER_0_21_222
*1364 FILLER_0_21_239
*1365 FILLER_0_21_257
*1366 FILLER_0_21_271
*1367 FILLER_0_21_279
*1368 FILLER_0_21_281
*1369 FILLER_0_21_3
*1370 FILLER_0_21_300
*1371 FILLER_0_21_309
*1372 FILLER_0_21_334
*1373 FILLER_0_21_55
*1374 FILLER_0_21_57
*1375 FILLER_0_21_97
*1376 FILLER_0_22_109
*1377 FILLER_0_22_135
*1378 FILLER_0_22_139
*1379 FILLER_0_22_141
*1380 FILLER_0_22_180
*1381 FILLER_0_22_194
*1382 FILLER_0_22_197
*1383 FILLER_0_22_228
*1384 FILLER_0_22_236
*1385 FILLER_0_22_243
*1386 FILLER_0_22_259
*1387 FILLER_0_22_276
*1388 FILLER_0_22_288
*1389 FILLER_0_22_29
*1390 FILLER_0_22_3
*1391 FILLER_0_22_314
*1392 FILLER_0_22_323
*1393 FILLER_0_22_333
*1394 FILLER_0_22_49
*1395 FILLER_0_22_61
*1396 FILLER_0_22_69
*1397 FILLER_0_22_78
*1398 FILLER_0_22_85
*1399 FILLER_0_22_97
*1400 FILLER_0_23_102
*1401 FILLER_0_23_113
*1402 FILLER_0_23_135
*1403 FILLER_0_23_147
*1404 FILLER_0_23_15
*1405 FILLER_0_23_151
*1406 FILLER_0_23_175
*1407 FILLER_0_23_187
*1408 FILLER_0_23_223
*1409 FILLER_0_23_23
*1410 FILLER_0_23_249
*1411 FILLER_0_23_260
*1412 FILLER_0_23_278
*1413 FILLER_0_23_289
*1414 FILLER_0_23_3
*1415 FILLER_0_23_300
*1416 FILLER_0_23_38
*1417 FILLER_0_23_50
*1418 FILLER_0_23_57
*1419 FILLER_0_23_69
*1420 FILLER_0_23_80
*1421 FILLER_0_23_84
*1422 FILLER_0_23_90
*1423 FILLER_0_24_121
*1424 FILLER_0_24_130
*1425 FILLER_0_24_138
*1426 FILLER_0_24_141
*1427 FILLER_0_24_15
*1428 FILLER_0_24_175
*1429 FILLER_0_24_187
*1430 FILLER_0_24_195
*1431 FILLER_0_24_197
*1432 FILLER_0_24_221
*1433 FILLER_0_24_23
*1434 FILLER_0_24_249
*1435 FILLER_0_24_258
*1436 FILLER_0_24_27
*1437 FILLER_0_24_3
*1438 FILLER_0_24_333
*1439 FILLER_0_24_35
*1440 FILLER_0_24_47
*1441 FILLER_0_24_59
*1442 FILLER_0_24_67
*1443 FILLER_0_24_98
*1444 FILLER_0_25_135
*1445 FILLER_0_25_182
*1446 FILLER_0_25_188
*1447 FILLER_0_25_210
*1448 FILLER_0_25_221
*1449 FILLER_0_25_225
*1450 FILLER_0_25_261
*1451 FILLER_0_25_278
*1452 FILLER_0_25_287
*1453 FILLER_0_25_3
*1454 FILLER_0_25_333
*1455 FILLER_0_25_50
*1456 FILLER_0_25_57
*1457 FILLER_0_26_114
*1458 FILLER_0_26_139
*1459 FILLER_0_26_157
*1460 FILLER_0_26_187
*1461 FILLER_0_26_221
*1462 FILLER_0_26_244
*1463 FILLER_0_26_253
*1464 FILLER_0_26_3
*1465 FILLER_0_26_300
*1466 FILLER_0_26_307
*1467 FILLER_0_26_309
*1468 FILLER_0_26_318
*1469 FILLER_0_26_329
*1470 FILLER_0_26_80
*1471 FILLER_0_26_85
*1472 FILLER_0_26_95
*1473 FILLER_0_27_102
*1474 FILLER_0_27_108
*1475 FILLER_0_27_132
*1476 FILLER_0_27_144
*1477 FILLER_0_27_177
*1478 FILLER_0_27_218
*1479 FILLER_0_27_225
*1480 FILLER_0_27_249
*1481 FILLER_0_27_261
*1482 FILLER_0_27_279
*1483 FILLER_0_27_281
*1484 FILLER_0_27_293
*1485 FILLER_0_27_3
*1486 FILLER_0_27_305
*1487 FILLER_0_27_314
*1488 FILLER_0_27_324
*1489 FILLER_0_27_332
*1490 FILLER_0_27_48
*1491 FILLER_0_27_57
*1492 FILLER_0_27_82
*1493 FILLER_0_27_94
*1494 FILLER_0_28_106
*1495 FILLER_0_28_114
*1496 FILLER_0_28_122
*1497 FILLER_0_28_131
*1498 FILLER_0_28_139
*1499 FILLER_0_28_141
*1500 FILLER_0_28_169
*1501 FILLER_0_28_18
*1502 FILLER_0_28_183
*1503 FILLER_0_28_221
*1504 FILLER_0_28_225
*1505 FILLER_0_28_242
*1506 FILLER_0_28_250
*1507 FILLER_0_28_253
*1508 FILLER_0_28_26
*1509 FILLER_0_28_261
*1510 FILLER_0_28_279
*1511 FILLER_0_28_29
*1512 FILLER_0_28_291
*1513 FILLER_0_28_3
*1514 FILLER_0_28_333
*1515 FILLER_0_28_37
*1516 FILLER_0_28_49
*1517 FILLER_0_28_61
*1518 FILLER_0_28_69
*1519 FILLER_0_28_79
*1520 FILLER_0_28_83
*1521 FILLER_0_28_85
*1522 FILLER_0_28_98
*1523 FILLER_0_29_111
*1524 FILLER_0_29_131
*1525 FILLER_0_29_143
*1526 FILLER_0_29_15
*1527 FILLER_0_29_187
*1528 FILLER_0_29_199
*1529 FILLER_0_29_210
*1530 FILLER_0_29_218
*1531 FILLER_0_29_23
*1532 FILLER_0_29_244
*1533 FILLER_0_29_256
*1534 FILLER_0_29_293
*1535 FILLER_0_29_3
*1536 FILLER_0_29_333
*1537 FILLER_0_29_37
*1538 FILLER_0_29_49
*1539 FILLER_0_29_55
*1540 FILLER_0_29_57
*1541 FILLER_0_29_77
*1542 FILLER_0_2_117
*1543 FILLER_0_2_15
*1544 FILLER_0_2_157
*1545 FILLER_0_2_174
*1546 FILLER_0_2_193
*1547 FILLER_0_2_229
*1548 FILLER_0_2_251
*1549 FILLER_0_2_27
*1550 FILLER_0_2_277
*1551 FILLER_0_2_289
*1552 FILLER_0_2_29
*1553 FILLER_0_2_3
*1554 FILLER_0_2_301
*1555 FILLER_0_2_307
*1556 FILLER_0_2_330
*1557 FILLER_0_2_334
*1558 FILLER_0_2_41
*1559 FILLER_0_2_50
*1560 FILLER_0_2_62
*1561 FILLER_0_2_79
*1562 FILLER_0_2_83
*1563 FILLER_0_30_131
*1564 FILLER_0_30_139
*1565 FILLER_0_30_141
*1566 FILLER_0_30_161
*1567 FILLER_0_30_165
*1568 FILLER_0_30_182
*1569 FILLER_0_30_194
*1570 FILLER_0_30_197
*1571 FILLER_0_30_201
*1572 FILLER_0_30_206
*1573 FILLER_0_30_218
*1574 FILLER_0_30_23
*1575 FILLER_0_30_251
*1576 FILLER_0_30_253
*1577 FILLER_0_30_261
*1578 FILLER_0_30_27
*1579 FILLER_0_30_280
*1580 FILLER_0_30_292
*1581 FILLER_0_30_3
*1582 FILLER_0_30_32
*1583 FILLER_0_30_331
*1584 FILLER_0_30_51
*1585 FILLER_0_30_85
*1586 FILLER_0_31_109
*1587 FILLER_0_31_124
*1588 FILLER_0_31_136
*1589 FILLER_0_31_154
*1590 FILLER_0_31_166
*1591 FILLER_0_31_169
*1592 FILLER_0_31_181
*1593 FILLER_0_31_222
*1594 FILLER_0_31_248
*1595 FILLER_0_31_260
*1596 FILLER_0_31_266
*1597 FILLER_0_31_271
*1598 FILLER_0_31_277
*1599 FILLER_0_31_288
*1600 FILLER_0_31_3
*1601 FILLER_0_31_300
*1602 FILLER_0_31_309
*1603 FILLER_0_31_331
*1604 FILLER_0_31_39
*1605 FILLER_0_31_54
*1606 FILLER_0_31_57
*1607 FILLER_0_31_61
*1608 FILLER_0_31_90
*1609 FILLER_0_31_99
*1610 FILLER_0_32_114
*1611 FILLER_0_32_126
*1612 FILLER_0_32_138
*1613 FILLER_0_32_141
*1614 FILLER_0_32_145
*1615 FILLER_0_32_173
*1616 FILLER_0_32_185
*1617 FILLER_0_32_242
*1618 FILLER_0_32_250
*1619 FILLER_0_32_253
*1620 FILLER_0_32_261
*1621 FILLER_0_32_29
*1622 FILLER_0_32_296
*1623 FILLER_0_32_3
*1624 FILLER_0_32_309
*1625 FILLER_0_32_322
*1626 FILLER_0_32_334
*1627 FILLER_0_32_54
*1628 FILLER_0_32_82
*1629 FILLER_0_32_85
*1630 FILLER_0_32_97
*1631 FILLER_0_33_107
*1632 FILLER_0_33_111
*1633 FILLER_0_33_113
*1634 FILLER_0_33_122
*1635 FILLER_0_33_126
*1636 FILLER_0_33_135
*1637 FILLER_0_33_141
*1638 FILLER_0_33_15
*1639 FILLER_0_33_152
*1640 FILLER_0_33_166
*1641 FILLER_0_33_169
*1642 FILLER_0_33_181
*1643 FILLER_0_33_19
*1644 FILLER_0_33_193
*1645 FILLER_0_33_221
*1646 FILLER_0_33_225
*1647 FILLER_0_33_237
*1648 FILLER_0_33_245
*1649 FILLER_0_33_261
*1650 FILLER_0_33_3
*1651 FILLER_0_33_303
*1652 FILLER_0_33_334
*1653 FILLER_0_33_48
*1654 FILLER_0_33_95
*1655 FILLER_0_34_102
*1656 FILLER_0_34_139
*1657 FILLER_0_34_141
*1658 FILLER_0_34_15
*1659 FILLER_0_34_171
*1660 FILLER_0_34_183
*1661 FILLER_0_34_195
*1662 FILLER_0_34_197
*1663 FILLER_0_34_204
*1664 FILLER_0_34_214
*1665 FILLER_0_34_231
*1666 FILLER_0_34_249
*1667 FILLER_0_34_268
*1668 FILLER_0_34_27