*SPEF "ieee 1481-1999"
*DESIGN "tt_um_chisel_hello_schoeberl"
*DATE "16:52:46 Sunday April 14, 2024"
*VENDOR "The OpenROAD Project"
*PROGRAM "OpenROAD"
*VERSION "0889970d1790a2617e69f253221b8bd7626e51dc"
*DESIGN_FLOW "NAME_SCOPE LOCAL" "PIN_CAP NONE"
*DIVIDER /
*DELIMITER :
*BUS_DELIMITER []
*T_UNIT 1 NS
*C_UNIT 1 PF
*R_UNIT 1 OHM
*L_UNIT 1 HENRY

*NAME_MAP
*3 clk
*4 ena
*5 rst_n
*6 ui_in[0]
*7 ui_in[1]
*8 ui_in[2]
*9 ui_in[3]
*10 ui_in[4]
*11 ui_in[5]
*12 ui_in[6]
*13 ui_in[7]
*14 uio_in[0]
*15 uio_in[1]
*16 uio_in[2]
*17 uio_in[3]
*18 uio_in[4]
*19 uio_in[5]
*20 uio_in[6]
*21 uio_in[7]
*22 net2
*23 net3
*24 net4
*25 net5
*26 net6
*27 net7
*28 net8
*29 net9
*30 net10
*31 net11
*32 net12
*33 net13
*34 net14
*35 net15
*36 net16
*37 net17
*38 uo_out[0]
*39 uo_out[1]
*40 uo_out[2]
*41 uo_out[3]
*42 uo_out[4]
*43 uo_out[5]
*44 uo_out[6]
*45 uo_out[7]
*46 ChiselTop\.cnt\[0\]
*47 ChiselTop\.cnt\[10\]
*48 ChiselTop\.cnt\[11\]
*49 ChiselTop\.cnt\[12\]
*50 ChiselTop\.cnt\[13\]
*51 ChiselTop\.cnt\[14\]
*52 ChiselTop\.cnt\[15\]
*53 ChiselTop\.cnt\[16\]
*54 ChiselTop\.cnt\[17\]
*55 ChiselTop\.cnt\[18\]
*56 ChiselTop\.cnt\[19\]
*57 ChiselTop\.cnt\[1\]
*58 ChiselTop\.cnt\[20\]
*59 ChiselTop\.cnt\[21\]
*60 ChiselTop\.cnt\[22\]
*61 ChiselTop\.cnt\[23\]
*62 ChiselTop\.cnt\[24\]
*63 ChiselTop\.cnt\[2\]
*64 ChiselTop\.cnt\[3\]
*65 ChiselTop\.cnt\[4\]
*66 ChiselTop\.cnt\[5\]
*67 ChiselTop\.cnt\[6\]
*68 ChiselTop\.cnt\[7\]
*69 ChiselTop\.cnt\[8\]
*70 ChiselTop\.cnt\[9\]
*71 ChiselTop\.dec\.counter\[0\]
*72 ChiselTop\.dec\.counter\[1\]
*73 ChiselTop\.dec\.counter\[2\]
*74 ChiselTop\.dec\.counter\[3\]
*75 ChiselTop\.ledReg
*76 _000_
*77 _001_
*78 _002_
*79 _003_
*80 _004_
*81 _005_
*82 _006_
*83 _007_
*84 _008_
*85 _009_
*86 _010_
*87 _011_
*88 _012_
*89 _013_
*90 _014_
*91 _015_
*92 _016_
*93 _017_
*94 _018_
*95 _019_
*96 _020_
*97 _021_
*98 _022_
*99 _023_
*100 _024_
*101 _025_
*102 _026_
*103 _027_
*104 _028_
*105 _029_
*106 _030_
*107 _031_
*108 _032_
*109 _033_
*110 _034_
*111 _035_
*112 _036_
*113 _037_
*114 _038_
*115 _039_
*116 _040_
*117 _041_
*118 _042_
*119 _043_
*120 _044_
*121 _045_
*122 _046_
*123 _047_
*124 _048_
*125 _049_
*126 _050_
*127 _051_
*128 _052_
*129 _053_
*130 _054_
*131 _055_
*132 _056_
*133 _057_
*134 _058_
*135 _059_
*136 _060_
*137 _061_
*138 _062_
*139 _063_
*140 _064_
*141 _065_
*142 _066_
*143 _067_
*144 _068_
*145 _069_
*146 _070_
*147 _071_
*148 _072_
*149 _073_
*150 _074_
*151 _075_
*152 _076_
*153 _077_
*154 _078_
*155 _079_
*156 _080_
*157 _081_
*158 _082_
*159 _083_
*160 _084_
*161 _085_
*162 _086_
*163 _087_
*164 _088_
*165 _089_
*166 _090_
*167 _091_
*168 _092_
*169 _093_
*170 _094_
*171 _095_
*172 _096_
*173 _097_
*174 _098_
*175 _099_
*176 _100_
*177 _101_
*178 _102_
*179 _103_
*180 _104_
*181 _105_
*182 _106_
*183 _107_
*184 _108_
*185 _109_
*186 _110_
*187 _111_
*188 _112_
*189 _113_
*190 _114_
*191 _115_
*192 _116_
*193 _117_
*194 _118_
*195 _119_
*196 _120_
*197 clknet_0_clk
*198 clknet_2_0__leaf_clk
*199 clknet_2_1__leaf_clk
*200 clknet_2_2__leaf_clk
*201 clknet_2_3__leaf_clk
*202 net1
*203 net18
*204 net19
*205 net20
*206 net21
*207 net22
*208 net23
*209 net24
*210 net25
*211 net26
*212 net27
*213 net28
*214 net29
*215 net30
*216 net31
*217 net32
*218 net33
*219 net34
*220 net35
*221 FILLER_0_0_109
*222 FILLER_0_0_113
*223 FILLER_0_0_125
*224 FILLER_0_0_137
*225 FILLER_0_0_141
*226 FILLER_0_0_15
*227 FILLER_0_0_153
*228 FILLER_0_0_165
*229 FILLER_0_0_169
*230 FILLER_0_0_181
*231 FILLER_0_0_193
*232 FILLER_0_0_197
*233 FILLER_0_0_209
*234 FILLER_0_0_221
*235 FILLER_0_0_225
*236 FILLER_0_0_237
*237 FILLER_0_0_249
*238 FILLER_0_0_253
*239 FILLER_0_0_265
*240 FILLER_0_0_27
*241 FILLER_0_0_277
*242 FILLER_0_0_281
*243 FILLER_0_0_29
*244 FILLER_0_0_293
*245 FILLER_0_0_3
*246 FILLER_0_0_305
*247 FILLER_0_0_309
*248 FILLER_0_0_321
*249 FILLER_0_0_333
*250 FILLER_0_0_41
*251 FILLER_0_0_53
*252 FILLER_0_0_57
*253 FILLER_0_0_69
*254 FILLER_0_0_81
*255 FILLER_0_0_85
*256 FILLER_0_0_97
*257 FILLER_0_10_109
*258 FILLER_0_10_121
*259 FILLER_0_10_133
*260 FILLER_0_10_139
*261 FILLER_0_10_141
*262 FILLER_0_10_15
*263 FILLER_0_10_153
*264 FILLER_0_10_165
*265 FILLER_0_10_177
*266 FILLER_0_10_189
*267 FILLER_0_10_195
*268 FILLER_0_10_197
*269 FILLER_0_10_209
*270 FILLER_0_10_221
*271 FILLER_0_10_233
*272 FILLER_0_10_245
*273 FILLER_0_10_251
*274 FILLER_0_10_253
*275 FILLER_0_10_265
*276 FILLER_0_10_27
*277 FILLER_0_10_277
*278 FILLER_0_10_289
*279 FILLER_0_10_29
*280 FILLER_0_10_3
*281 FILLER_0_10_301
*282 FILLER_0_10_307
*283 FILLER_0_10_309
*284 FILLER_0_10_321
*285 FILLER_0_10_333
*286 FILLER_0_10_41
*287 FILLER_0_10_53
*288 FILLER_0_10_65
*289 FILLER_0_10_77
*290 FILLER_0_10_83
*291 FILLER_0_10_85
*292 FILLER_0_10_97
*293 FILLER_0_11_105
*294 FILLER_0_11_111
*295 FILLER_0_11_113
*296 FILLER_0_11_125
*297 FILLER_0_11_137
*298 FILLER_0_11_149
*299 FILLER_0_11_15
*300 FILLER_0_11_161
*301 FILLER_0_11_167
*302 FILLER_0_11_169
*303 FILLER_0_11_181
*304 FILLER_0_11_193
*305 FILLER_0_11_205
*306 FILLER_0_11_217
*307 FILLER_0_11_223
*308 FILLER_0_11_225
*309 FILLER_0_11_237
*310 FILLER_0_11_249
*311 FILLER_0_11_261
*312 FILLER_0_11_27
*313 FILLER_0_11_273
*314 FILLER_0_11_279
*315 FILLER_0_11_281
*316 FILLER_0_11_293
*317 FILLER_0_11_3
*318 FILLER_0_11_305
*319 FILLER_0_11_317
*320 FILLER_0_11_329
*321 FILLER_0_11_39
*322 FILLER_0_11_51
*323 FILLER_0_11_55
*324 FILLER_0_11_57
*325 FILLER_0_11_69
*326 FILLER_0_11_81
*327 FILLER_0_11_93
*328 FILLER_0_12_109
*329 FILLER_0_12_121
*330 FILLER_0_12_133
*331 FILLER_0_12_139
*332 FILLER_0_12_141
*333 FILLER_0_12_15
*334 FILLER_0_12_153
*335 FILLER_0_12_165
*336 FILLER_0_12_177
*337 FILLER_0_12_189
*338 FILLER_0_12_195
*339 FILLER_0_12_197
*340 FILLER_0_12_209
*341 FILLER_0_12_221
*342 FILLER_0_12_233
*343 FILLER_0_12_245
*344 FILLER_0_12_251
*345 FILLER_0_12_253
*346 FILLER_0_12_265
*347 FILLER_0_12_27
*348 FILLER_0_12_277
*349 FILLER_0_12_289
*350 FILLER_0_12_29
*351 FILLER_0_12_3
*352 FILLER_0_12_301
*353 FILLER_0_12_307
*354 FILLER_0_12_309
*355 FILLER_0_12_321
*356 FILLER_0_12_333
*357 FILLER_0_12_41
*358 FILLER_0_12_53
*359 FILLER_0_12_65
*360 FILLER_0_12_77
*361 FILLER_0_12_83
*362 FILLER_0_12_85
*363 FILLER_0_12_97
*364 FILLER_0_13_105
*365 FILLER_0_13_111
*366 FILLER_0_13_113
*367 FILLER_0_13_125
*368 FILLER_0_13_137
*369 FILLER_0_13_149
*370 FILLER_0_13_15
*371 FILLER_0_13_161
*372 FILLER_0_13_167
*373 FILLER_0_13_169
*374 FILLER_0_13_181
*375 FILLER_0_13_193
*376 FILLER_0_13_205
*377 FILLER_0_13_217
*378 FILLER_0_13_223
*379 FILLER_0_13_225
*380 FILLER_0_13_237
*381 FILLER_0_13_249
*382 FILLER_0_13_261
*383 FILLER_0_13_27
*384 FILLER_0_13_273
*385 FILLER_0_13_279
*386 FILLER_0_13_281
*387 FILLER_0_13_293
*388 FILLER_0_13_3
*389 FILLER_0_13_305
*390 FILLER_0_13_317
*391 FILLER_0_13_329
*392 FILLER_0_13_39
*393 FILLER_0_13_51
*394 FILLER_0_13_55
*395 FILLER_0_13_57
*396 FILLER_0_13_69
*397 FILLER_0_13_81
*398 FILLER_0_13_93
*399 FILLER_0_14_109
*400 FILLER_0_14_121
*401 FILLER_0_14_133
*402 FILLER_0_14_139
*403 FILLER_0_14_141
*404 FILLER_0_14_15
*405 FILLER_0_14_153
*406 FILLER_0_14_165
*407 FILLER_0_14_177
*408 FILLER_0_14_189
*409 FILLER_0_14_195
*410 FILLER_0_14_197
*411 FILLER_0_14_209
*412 FILLER_0_14_221
*413 FILLER_0_14_233
*414 FILLER_0_14_245
*415 FILLER_0_14_251
*416 FILLER_0_14_253
*417 FILLER_0_14_265
*418 FILLER_0_14_27
*419 FILLER_0_14_277
*420 FILLER_0_14_289
*421 FILLER_0_14_29
*422 FILLER_0_14_3
*423 FILLER_0_14_301
*424 FILLER_0_14_307
*425 FILLER_0_14_309
*426 FILLER_0_14_321
*427 FILLER_0_14_333
*428 FILLER_0_14_41
*429 FILLER_0_14_53
*430 FILLER_0_14_65
*431 FILLER_0_14_77
*432 FILLER_0_14_83
*433 FILLER_0_14_85
*434 FILLER_0_14_97
*435 FILLER_0_15_105
*436 FILLER_0_15_111
*437 FILLER_0_15_113
*438 FILLER_0_15_125
*439 FILLER_0_15_137
*440 FILLER_0_15_149
*441 FILLER_0_15_15
*442 FILLER_0_15_161
*443 FILLER_0_15_167
*444 FILLER_0_15_169
*445 FILLER_0_15_181
*446 FILLER_0_15_193
*447 FILLER_0_15_205
*448 FILLER_0_15_217
*449 FILLER_0_15_223
*450 FILLER_0_15_225
*451 FILLER_0_15_237
*452 FILLER_0_15_249
*453 FILLER_0_15_261
*454 FILLER_0_15_27
*455 FILLER_0_15_273
*456 FILLER_0_15_279
*457 FILLER_0_15_281
*458 FILLER_0_15_293
*459 FILLER_0_15_3
*460 FILLER_0_15_305
*461 FILLER_0_15_317
*462 FILLER_0_15_329
*463 FILLER_0_15_39
*464 FILLER_0_15_51
*465 FILLER_0_15_55
*466 FILLER_0_15_57
*467 FILLER_0_15_69
*468 FILLER_0_15_81
*469 FILLER_0_15_93
*470 FILLER_0_16_109
*471 FILLER_0_16_121
*472 FILLER_0_16_133
*473 FILLER_0_16_139
*474 FILLER_0_16_141
*475 FILLER_0_16_15
*476 FILLER_0_16_153
*477 FILLER_0_16_165
*478 FILLER_0_16_177
*479 FILLER_0_16_189
*480 FILLER_0_16_195
*481 FILLER_0_16_197
*482 FILLER_0_16_209
*483 FILLER_0_16_221
*484 FILLER_0_16_233
*485 FILLER_0_16_245
*486 FILLER_0_16_251
*487 FILLER_0_16_253
*488 FILLER_0_16_265
*489 FILLER_0_16_27
*490 FILLER_0_16_277
*491 FILLER_0_16_289
*492 FILLER_0_16_29
*493 FILLER_0_16_3
*494 FILLER_0_16_301
*495 FILLER_0_16_307
*496 FILLER_0_16_309
*497 FILLER_0_16_321
*498 FILLER_0_16_333
*499 FILLER_0_16_41
*500 FILLER_0_16_53
*501 FILLER_0_16_65
*502 FILLER_0_16_77
*503 FILLER_0_16_83
*504 FILLER_0_16_85
*505 FILLER_0_16_97
*506 FILLER_0_17_105
*507 FILLER_0_17_111
*508 FILLER_0_17_113
*509 FILLER_0_17_125
*510 FILLER_0_17_137
*511 FILLER_0_17_149
*512 FILLER_0_17_15
*513 FILLER_0_17_161
*514 FILLER_0_17_167
*515 FILLER_0_17_169
*516 FILLER_0_17_181
*517 FILLER_0_17_193
*518 FILLER_0_17_205
*519 FILLER_0_17_217
*520 FILLER_0_17_223
*521 FILLER_0_17_225
*522 FILLER_0_17_237
*523 FILLER_0_17_249
*524 FILLER_0_17_261
*525 FILLER_0_17_27
*526 FILLER_0_17_273
*527 FILLER_0_17_279
*528 FILLER_0_17_281
*529 FILLER_0_17_293
*530 FILLER_0_17_3
*531 FILLER_0_17_305
*532 FILLER_0_17_317
*533 FILLER_0_17_329
*534 FILLER_0_17_39
*535 FILLER_0_17_51
*536 FILLER_0_17_55
*537 FILLER_0_17_57
*538 FILLER_0_17_69
*539 FILLER_0_17_81
*540 FILLER_0_17_93
*541 FILLER_0_18_109
*542 FILLER_0_18_121
*543 FILLER_0_18_133
*544 FILLER_0_18_139
*545 FILLER_0_18_141
*546 FILLER_0_18_15
*547 FILLER_0_18_153
*548 FILLER_0_18_165
*549 FILLER_0_18_177
*550 FILLER_0_18_189
*551 FILLER_0_18_195
*552 FILLER_0_18_197
*553 FILLER_0_18_209
*554 FILLER_0_18_221
*555 FILLER_0_18_233
*556 FILLER_0_18_245
*557 FILLER_0_18_251
*558 FILLER_0_18_253
*559 FILLER_0_18_265
*560 FILLER_0_18_27
*561 FILLER_0_18_277
*562 FILLER_0_18_289
*563 FILLER_0_18_29
*564 FILLER_0_18_3
*565 FILLER_0_18_301
*566 FILLER_0_18_307
*567 FILLER_0_18_309
*568 FILLER_0_18_321
*569 FILLER_0_18_333
*570 FILLER_0_18_41
*571 FILLER_0_18_53
*572 FILLER_0_18_65
*573 FILLER_0_18_77
*574 FILLER_0_18_83
*575 FILLER_0_18_85
*576 FILLER_0_18_97
*577 FILLER_0_19_105
*578 FILLER_0_19_111
*579 FILLER_0_19_113
*580 FILLER_0_19_125
*581 FILLER_0_19_137
*582 FILLER_0_19_149
*583 FILLER_0_19_15
*584 FILLER_0_19_161
*585 FILLER_0_19_167
*586 FILLER_0_19_169
*587 FILLER_0_19_181
*588 FILLER_0_19_193
*589 FILLER_0_19_205
*590 FILLER_0_19_217
*591 FILLER_0_19_223
*592 FILLER_0_19_225
*593 FILLER_0_19_237
*594 FILLER_0_19_249
*595 FILLER_0_19_261
*596 FILLER_0_19_27
*597 FILLER_0_19_273
*598 FILLER_0_19_279
*599 FILLER_0_19_281
*600 FILLER_0_19_293
*601 FILLER_0_19_3
*602 FILLER_0_19_305
*603 FILLER_0_19_317
*604 FILLER_0_19_329
*605 FILLER_0_19_39
*606 FILLER_0_19_51
*607 FILLER_0_19_55
*608 FILLER_0_19_57
*609 FILLER_0_19_69
*610 FILLER_0_19_81
*611 FILLER_0_19_93
*612 FILLER_0_1_105
*613 FILLER_0_1_111
*614 FILLER_0_1_113
*615 FILLER_0_1_125
*616 FILLER_0_1_137
*617 FILLER_0_1_149
*618 FILLER_0_1_15
*619 FILLER_0_1_161
*620 FILLER_0_1_167
*621 FILLER_0_1_169
*622 FILLER_0_1_181
*623 FILLER_0_1_193
*624 FILLER_0_1_205
*625 FILLER_0_1_217
*626 FILLER_0_1_223
*627 FILLER_0_1_225
*628 FILLER_0_1_237
*629 FILLER_0_1_249
*630 FILLER_0_1_261
*631 FILLER_0_1_27
*632 FILLER_0_1_273
*633 FILLER_0_1_279
*634 FILLER_0_1_281
*635 FILLER_0_1_293
*636 FILLER_0_1_3
*637 FILLER_0_1_305
*638 FILLER_0_1_317
*639 FILLER_0_1_329
*640 FILLER_0_1_39
*641 FILLER_0_1_51
*642 FILLER_0_1_55
*643 FILLER_0_1_57
*644 FILLER_0_1_69
*645 FILLER_0_1_81
*646 FILLER_0_1_93
*647 FILLER_0_20_109
*648 FILLER_0_20_121
*649 FILLER_0_20_133
*650 FILLER_0_20_139
*651 FILLER_0_20_141
*652 FILLER_0_20_15
*653 FILLER_0_20_153
*654 FILLER_0_20_165
*655 FILLER_0_20_177
*656 FILLER_0_20_189
*657 FILLER_0_20_195
*658 FILLER_0_20_197
*659 FILLER_0_20_209
*660 FILLER_0_20_221
*661 FILLER_0_20_233
*662 FILLER_0_20_245
*663 FILLER_0_20_251
*664 FILLER_0_20_253
*665 FILLER_0_20_265
*666 FILLER_0_20_27
*667 FILLER_0_20_277
*668 FILLER_0_20_289
*669 FILLER_0_20_29
*670 FILLER_0_20_3
*671 FILLER_0_20_301
*672 FILLER_0_20_307
*673 FILLER_0_20_309
*674 FILLER_0_20_321
*675 FILLER_0_20_333
*676 FILLER_0_20_41
*677 FILLER_0_20_53
*678 FILLER_0_20_65
*679 FILLER_0_20_77
*680 FILLER_0_20_83
*681 FILLER_0_20_85
*682 FILLER_0_20_97
*683 FILLER_0_21_105
*684 FILLER_0_21_111
*685 FILLER_0_21_113
*686 FILLER_0_21_125
*687 FILLER_0_21_137
*688 FILLER_0_21_149
*689 FILLER_0_21_15
*690 FILLER_0_21_161
*691 FILLER_0_21_167
*692 FILLER_0_21_169
*693 FILLER_0_21_181
*694 FILLER_0_21_193
*695 FILLER_0_21_205
*696 FILLER_0_21_217
*697 FILLER_0_21_223
*698 FILLER_0_21_225
*699 FILLER_0_21_237
*700 FILLER_0_21_249
*701 FILLER_0_21_261
*702 FILLER_0_21_27
*703 FILLER_0_21_273
*704 FILLER_0_21_279
*705 FILLER_0_21_281
*706 FILLER_0_21_293
*707 FILLER_0_21_3
*708 FILLER_0_21_305
*709 FILLER_0_21_317
*710 FILLER_0_21_329
*711 FILLER_0_21_39
*712 FILLER_0_21_51
*713 FILLER_0_21_55
*714 FILLER_0_21_57
*715 FILLER_0_21_69
*716 FILLER_0_21_81
*717 FILLER_0_21_93
*718 FILLER_0_22_109
*719 FILLER_0_22_121
*720 FILLER_0_22_133
*721 FILLER_0_22_139
*722 FILLER_0_22_141
*723 FILLER_0_22_15
*724 FILLER_0_22_153
*725 FILLER_0_22_165
*726 FILLER_0_22_177
*727 FILLER_0_22_189
*728 FILLER_0_22_195
*729 FILLER_0_22_197
*730 FILLER_0_22_209
*731 FILLER_0_22_221
*732 FILLER_0_22_233
*733 FILLER_0_22_245
*734 FILLER_0_22_251
*735 FILLER_0_22_253
*736 FILLER_0_22_265
*737 FILLER_0_22_27
*738 FILLER_0_22_277
*739 FILLER_0_22_289
*740 FILLER_0_22_29
*741 FILLER_0_22_3
*742 FILLER_0_22_301
*743 FILLER_0_22_307
*744 FILLER_0_22_309
*745 FILLER_0_22_321
*746 FILLER_0_22_333
*747 FILLER_0_22_41
*748 FILLER_0_22_53
*749 FILLER_0_22_65
*750 FILLER_0_22_77
*751 FILLER_0_22_83
*752 FILLER_0_22_85
*753 FILLER_0_22_97
*754 FILLER_0_23_105
*755 FILLER_0_23_111
*756 FILLER_0_23_113
*757 FILLER_0_23_125
*758 FILLER_0_23_137
*759 FILLER_0_23_149
*760 FILLER_0_23_15
*761 FILLER_0_23_161
*762 FILLER_0_23_167
*763 FILLER_0_23_169
*764 FILLER_0_23_181
*765 FILLER_0_23_193
*766 FILLER_0_23_205
*767 FILLER_0_23_217
*768 FILLER_0_23_223
*769 FILLER_0_23_225
*770 FILLER_0_23_237
*771 FILLER_0_23_249
*772 FILLER_0_23_261
*773 FILLER_0_23_27
*774 FILLER_0_23_273
*775 FILLER_0_23_279
*776 FILLER_0_23_281
*777 FILLER_0_23_293
*778 FILLER_0_23_3
*779 FILLER_0_23_305
*780 FILLER_0_23_317
*781 FILLER_0_23_329
*782 FILLER_0_23_39
*783 FILLER_0_23_51
*784 FILLER_0_23_55
*785 FILLER_0_23_57
*786 FILLER_0_23_69
*787 FILLER_0_23_81
*788 FILLER_0_23_93
*789 FILLER_0_24_109
*790 FILLER_0_24_121
*791 FILLER_0_24_133
*792 FILLER_0_24_139
*793 FILLER_0_24_141
*794 FILLER_0_24_15
*795 FILLER_0_24_153
*796 FILLER_0_24_165
*797 FILLER_0_24_177
*798 FILLER_0_24_189
*799 FILLER_0_24_195
*800 FILLER_0_24_197
*801 FILLER_0_24_209
*802 FILLER_0_24_221
*803 FILLER_0_24_233
*804 FILLER_0_24_245
*805 FILLER_0_24_251
*806 FILLER_0_24_253
*807 FILLER_0_24_265
*808 FILLER_0_24_27
*809 FILLER_0_24_277
*810 FILLER_0_24_289
*811 FILLER_0_24_29
*812 FILLER_0_24_3
*813 FILLER_0_24_301
*814 FILLER_0_24_307
*815 FILLER_0_24_309
*816 FILLER_0_24_321
*817 FILLER_0_24_333
*818 FILLER_0_24_41
*819 FILLER_0_24_53
*820 FILLER_0_24_65
*821 FILLER_0_24_77
*822 FILLER_0_24_83
*823 FILLER_0_24_85
*824 FILLER_0_24_97
*825 FILLER_0_25_105
*826 FILLER_0_25_111
*827 FILLER_0_25_113
*828 FILLER_0_25_125
*829 FILLER_0_25_137
*830 FILLER_0_25_149
*831 FILLER_0_25_15
*832 FILLER_0_25_161
*833 FILLER_0_25_167
*834 FILLER_0_25_185
*835 FILLER_0_25_197
*836 FILLER_0_25_209
*837 FILLER_0_25_221
*838 FILLER_0_25_225
*839 FILLER_0_25_229
*840 FILLER_0_25_233
*841 FILLER_0_25_245
*842 FILLER_0_25_257
*843 FILLER_0_25_269
*844 FILLER_0_25_27
*845 FILLER_0_25_277
*846 FILLER_0_25_281
*847 FILLER_0_25_293
*848 FILLER_0_25_3
*849 FILLER_0_25_305
*850 FILLER_0_25_317
*851 FILLER_0_25_329
*852 FILLER_0_25_39
*853 FILLER_0_25_51
*854 FILLER_0_25_55
*855 FILLER_0_25_57
*856 FILLER_0_25_69
*857 FILLER_0_25_81
*858 FILLER_0_25_93
*859 FILLER_0_26_109
*860 FILLER_0_26_121
*861 FILLER_0_26_133
*862 FILLER_0_26_139
*863 FILLER_0_26_141
*864 FILLER_0_26_15
*865 FILLER_0_26_153
*866 FILLER_0_26_183
*867 FILLER_0_26_192
*868 FILLER_0_26_197
*869 FILLER_0_26_205
*870 FILLER_0_26_232
*871 FILLER_0_26_249
*872 FILLER_0_26_253
*873 FILLER_0_26_260
*874 FILLER_0_26_27
*875 FILLER_0_26_272
*876 FILLER_0_26_284
*877 FILLER_0_26_29
*878 FILLER_0_26_296
*879 FILLER_0_26_3
*880 FILLER_0_26_309
*881 FILLER_0_26_321
*882 FILLER_0_26_333
*883 FILLER_0_26_41
*884 FILLER_0_26_53
*885 FILLER_0_26_65
*886 FILLER_0_26_77
*887 FILLER_0_26_83
*888 FILLER_0_26_85
*889 FILLER_0_26_97
*890 FILLER_0_27_105
*891 FILLER_0_27_111
*892 FILLER_0_27_113
*893 FILLER_0_27_125
*894 FILLER_0_27_137
*895 FILLER_0_27_149
*896 FILLER_0_27_15
*897 FILLER_0_27_237
*898 FILLER_0_27_249
*899 FILLER_0_27_267
*900 FILLER_0_27_27
*901 FILLER_0_27_274
*902 FILLER_0_27_281
*903 FILLER_0_27_299
*904 FILLER_0_27_3
*905 FILLER_0_27_311
*906 FILLER_0_27_323
*907 FILLER_0_27_39
*908 FILLER_0_27_51
*909 FILLER_0_27_55
*910 FILLER_0_27_57
*911 FILLER_0_27_69
*912 FILLER_0_27_81
*913 FILLER_0_27_93
*914 FILLER_0_28_109
*915 FILLER_0_28_121
*916 FILLER_0_28_133
*917 FILLER_0_28_139
*918 FILLER_0_28_141
*919 FILLER_0_28_15
*920 FILLER_0_28_153
*921 FILLER_0_28_182
*922 FILLER_0_28_192
*923 FILLER_0_28_197
*924 FILLER_0_28_235
*925 FILLER_0_28_247
*926 FILLER_0_28_251
*927 FILLER_0_28_27
*928 FILLER_0_28_280
*929 FILLER_0_28_29
*930 FILLER_0_28_3
*931 FILLER_0_28_304
*932 FILLER_0_28_309
*933 FILLER_0_28_321
*934 FILLER_0_28_333
*935 FILLER_0_28_41
*936 FILLER_0_28_53
*937 FILLER_0_28_65
*938 FILLER_0_28_77
*939 FILLER_0_28_83
*940 FILLER_0_28_85
*941 FILLER_0_28_97
*942 FILLER_0_29_105
*943 FILLER_0_29_111
*944 FILLER_0_29_113
*945 FILLER_0_29_125
*946 FILLER_0_29_137
*947 FILLER_0_29_149
*948 FILLER_0_29_15
*949 FILLER_0_29_161
*950 FILLER_0_29_167
*951 FILLER_0_29_173
*952 FILLER_0_29_185
*953 FILLER_0_29_197
*954 FILLER_0_29_203
*955 FILLER_0_29_207
*956 FILLER_0_29_216
*957 FILLER_0_29_222
*958 FILLER_0_29_225
*959 FILLER_0_29_237
*960 FILLER_0_29_266
*961 FILLER_0_29_27
*962 FILLER_0_29_278
*963 FILLER_0_29_3
*964 FILLER_0_29_312
*965 FILLER_0_29_324
*966 FILLER_0_29_332
*967 FILLER_0_29_39
*968 FILLER_0_29_51
*969 FILLER_0_29_55
*970 FILLER_0_29_57
*971 FILLER_0_29_69
*972 FILLER_0_29_81
*973 FILLER_0_29_93
*974 FILLER_0_2_109
*975 FILLER_0_2_121
*976 FILLER_0_2_133
*977 FILLER_0_2_139
*978 FILLER_0_2_141
*979 FILLER_0_2_15
*980 FILLER_0_2_153
*981 FILLER_0_2_165
*982 FILLER_0_2_177
*983 FILLER_0_2_189
*984 FILLER_0_2_195
*985 FILLER_0_2_197
*986 FILLER_0_2_209
*987 FILLER_0_2_221
*988 FILLER_0_2_233
*989 FILLER_0_2_245
*990 FILLER_0_2_251
*991 FILLER_0_2_253
*992 FILLER_0_2_265
*993 FILLER_0_2_27
*994 FILLER_0_2_277
*995 FILLER_0_2_289
*996 FILLER_0_2_29
*997 FILLER_0_2_3
*998 FILLER_0_2_301
*999 FILLER_0_2_307
*1000 FILLER_0_2_309
*1001 FILLER_0_2_321
*1002 FILLER_0_2_333
*1003 FILLER_0_2_41
*1004 FILLER_0_2_53
*1005 FILLER_0_2_65
*1006 FILLER_0_2_77
*1007 FILLER_0_2_83
*1008 FILLER_0_2_85
*1009 FILLER_0_2_97
*1010 FILLER_0_30_109
*1011 FILLER_0_30_121
*1012 FILLER_0_30_133
*1013 FILLER_0_30_139
*1014 FILLER_0_30_141
*1015 FILLER_0_30_15
*1016 FILLER_0_30_153
*1017 FILLER_0_30_159
*1018 FILLER_0_30_185
*1019 FILLER_0_30_193
*1020 FILLER_0_30_221
*1021 FILLER_0_30_233
*1022 FILLER_0_30_241
*1023 FILLER_0_30_250
*1024 FILLER_0_30_253
*1025 FILLER_0_30_27
*1026 FILLER_0_30_284
*1027 FILLER_0_30_29
*1028 FILLER_0_30_3
*1029 FILLER_0_30_306
*1030 FILLER_0_30_317
*1031 FILLER_0_30_329
*1032 FILLER_0_30_41
*1033 FILLER_0_30_53
*1034 FILLER_0_30_65
*1035 FILLER_0_30_77
*1036 FILLER_0_30_83
*1037 FILLER_0_30_85
*1038 FILLER_0_30_97
*1039 FILLER_0_31_105
*1040 FILLER_0_31_111
*1041 FILLER_0_31_113
*1042 FILLER_0_31_125
*1043 FILLER_0_31_137
*1044 FILLER_0_31_149
*1045 FILLER_0_31_15
*1046 FILLER_0_31_157
*1047 FILLER_0_31_210
*1048 FILLER_0_31_223
*1049 FILLER_0_31_225
*1050 FILLER_0_31_231
*1051 FILLER_0_31_235
*1052 FILLER_0_31_255
*1053 FILLER_0_31_27
*1054 FILLER_0_31_276
*1055 FILLER_0_31_281
*1056 FILLER_0_31_285
*1057 FILLER_0_31_289
*1058 FILLER_0_31_293
*1059 FILLER_0_31_3
*1060 FILLER_0_31_305
*1061 FILLER_0_31_317
*1062 FILLER_0_31_329
*1063 FILLER_0_31_39
*1064 FILLER_0_31_51
*1065 FILLER_0_31_55
*1066 FILLER_0_31_57
*1067 FILLER_0_31_69
*1068 FILLER_0_31_81
*1069 FILLER_0_31_93
*1070 FILLER_0_32_109
*1071 FILLER_0_32_121
*1072 FILLER_0_32_133
*1073 FILLER_0_32_139
*1074 FILLER_0_32_141
*1075 FILLER_0_32_15
*1076 FILLER_0_32_153
*1077 FILLER_0_32_161
*1078 FILLER_0_32_182
*1079 FILLER_0_32_191
*1080 FILLER_0_32_195
*1081 FILLER_0_32_217
*1082 FILLER_0_32_244
*1083 FILLER_0_32_27
*1084 FILLER_0_32_273
*1085 FILLER_0_32_285
*1086 FILLER_0_32_29
*1087 FILLER_0_32_295
*1088 FILLER_0_32_3
*1089 FILLER_0_32_307
*1090 FILLER_0_32_309
*1091 FILLER_0_32_321
*1092 FILLER_0_32_333
*1093 FILLER_0_32_41
*1094 FILLER_0_32_53
*1095 FILLER_0_32_65
*1096 FILLER_0_32_77
*1097 FILLER_0_32_83
*1098 FILLER_0_32_85
*1099 FILLER_0_32_97
*1100 FILLER_0_33_105
*1101 FILLER_0_33_111
*1102 FILLER_0_33_113
*1103 FILLER_0_33_125
*1104 FILLER_0_33_137
*1105 FILLER_0_33_149
*1106 FILLER_0_33_15
*1107 FILLER_0_33_161
*1108 FILLER_0_33_167
*1109 FILLER_0_33_169
*1110 FILLER_0_33_183
*1111 FILLER_0_33_205
*1112 FILLER_0_33_213
*1113 FILLER_0_33_221
*1114 FILLER_0_33_225
*1115 FILLER_0_33_237
*1116 FILLER_0_33_243
*1117 FILLER_0_33_257
*1118 FILLER_0_33_27
*1119 FILLER_0_33_274
*1120 FILLER_0_33_281
*1121 FILLER_0_33_285
*1122 FILLER_0_33_3
*1123 FILLER_0_33_305
*1124 FILLER_0_33_317
*1125 FILLER_0_33_329
*1126 FILLER_0_33_39
*1127 FILLER_0_33_51
*1128 FILLER_0_33_55
*1129 FILLER_0_33_57
*1130 FILLER_0_33_69
*1131 FILLER_0_33_81
*1132 FILLER_0_33_93
*1133 FILLER_0_34_109
*1134 FILLER_0_34_121
*1135 FILLER_0_34_129
*1136 FILLER_0_34_135
*1137 FILLER_0_34_139
*1138 FILLER_0_34_149
*1139 FILLER_0_34_15
*1140 FILLER_0_34_180
*1141 FILLER_0_34_192
*1142 FILLER_0_34_197
*1143 FILLER_0_34_213
*1144 FILLER_0_34_222
*1145 FILLER_0_34_234
*1146 FILLER_0_34_244
*1147 FILLER_0_34_269
*1148 FILLER_0_34_27
*1149 FILLER_0_34_277
*1150 FILLER_0_34_29
*1151 FILLER_0_34_3
*1152 FILLER_0_34_304
*1153 FILLER_0_34_309
*1154 FILLER_0_34_321
*1155 FILLER_0_34_333
*1156 FILLER_0_34_41
*1157 FILLER_0_34_53
*1158 FILLER_0_34_65
*1159 FILLER_0_34_77
*1160 FILLER_0_34_83
*1161 FILLER_0_34_85
*1162 FILLER_0_34_97
*1163 FILLER_0_35_105
*1164 FILLER_0_35_111
*1165 FILLER_0_35_113
*1166 FILLER_0_35_125
*1167 FILLER_0_35_15
*1168 FILLER_0_35_152
*1169 FILLER_0_35_166
*1170 FILLER_0_35_187
*1171 FILLER_0_35_195
*1172 FILLER_0_35_223
*1173 FILLER_0_35_230
*1174 FILLER_0_35_27
*1175 FILLER_0_35_281
*1176 FILLER_0_35_3
*1177 FILLER_0_35_317
*1178 FILLER_0_35_329
*1179 FILLER_0_35_39
*1180 FILLER_0_35_51
*1181 FILLER_0_35_55
*1182 FILLER_0_35_57
*1183 FILLER_0_35_69
*1184 FILLER_0_35_81
*1185 FILLER_0_35_93
*1186 FILLER_0_36_109
*1187 FILLER_0_36_121
*1188 FILLER_0_36_133
*1189 FILLER_0_36_139
*1190 FILLER_0_36_141
*1191 FILLER_0_36_15
*1192 FILLER_0_36_194
*1193 FILLER_0_36_197
*1194 FILLER_0_36_201
*1195 FILLER_0_36_234
*1196 FILLER_0_36_27
*1197 FILLER_0_36_275
*1198 FILLER_0_36_279
*1199 FILLER_0_36_29
*1200 FILLER_0_36_3
*1201 FILLER_0_36_313
*1202 FILLER_0_36_325
*1203 FILLER_0_36_333
*1204 FILLER_0_36_41
*1205 FILLER_0_36_53
*1206 FILLER_0_36_65
*1207 FILLER_0_36_77
*1208 FILLER_0_36_83
*1209 FILLER_0_36_85
*1210 FILLER_0_36_97
*1211 FILLER_0_37_105
*1212 FILLER_0_37_111
*1213 FILLER_0_37_113
*1214 FILLER_0_37_125
*1215 FILLER_0_37_137
*1216 FILLER_0_37_145
*1217 FILLER_0_37_15
*1218 FILLER_0_37_189
*1219 FILLER_0_37_201
*1220 FILLER_0_37_205
*1221 FILLER_0_37_223
*1222 FILLER_0_37_225
*1223 FILLER_0_37_237
*1224 FILLER_0_37_241
*1225 FILLER_0_37_27
*1226 FILLER_0_37_274
*1227 FILLER_0_37_281
*1228 FILLER_0_37_3
*1229 FILLER_0_37_304
*1230 FILLER_0_37_316
*1231 FILLER_0_37_328
*1232 FILLER_0_37_334
*1233 FILLER_0_37_39
*1234 FILLER_0_37_51
*1235 FILLER_0_37_55
*1236 FILLER_0_37_57
*1237 FILLER_0_37_69
*1238 FILLER_0_37_81
*1239 FILLER_0_37_93
*1240 FILLER_0_38_10
*1241 FILLER_0_38_102
*1242 FILLER_0_38_106
*1243 FILLER_0_38_110
*1244 FILLER_0_38_113
*1245 FILLER_0_38_118
*1246 FILLER_0_38_122
*1247 FILLER_0_38_126
*1248 FILLER_0_38_138
*1249 FILLER_0_38_14
*1250 FILLER_0_38_141
*1251 FILLER_0_38_149
*1252 FILLER_0_38_18
*1253 FILLER_0_38_186
*1254 FILLER_0_38_194
*1255 FILLER_0_38_197
*1256 FILLER_0_38_209
*1257 FILLER_0_38_213
*1258 FILLER_0_38_22
*1259 FILLER_0_38_222
*1260 FILLER_0_38_225
*1261 FILLER_0_38_237
*1262 FILLER_0_38_248
*1263 FILLER_0_38_257
*1264 FILLER_0_38_263
*1265 FILLER_0_38_272
*1266 FILLER_0_38_281
*1267 FILLER_0_38_288
*1268 FILLER_0_38_294
*1269 FILLER_0_38_306
*1270 FILLER_0_38_309
*1271 FILLER_0_38_32
*1272 FILLER_0_38_321
*1273 FILLER_0_38_327
*1274 FILLER_0_38_38
*1275 FILLER_0_38_42
*1276 FILLER_0_38_46
*1277 FILLER_0_38_50
*1278 FILLER_0_38_54
*1279 FILLER_0_38_57
*1280 FILLER_0_38_6
*1281 FILLER_0_38_62
*1282 FILLER_0_38_66
*1283 FILLER_0_38_70
*1284 FILLER_0_38_74
*1285 FILLER_0_38_78
*1286 FILLER_0_38_88
*1287 FILLER_0_38_94
*1288 FILLER_0_38_98
*1289 FILLER_0_3_105
*1290 FILLER_0_3_111
*1291 FILLER_0_3_113
*1292 FILLER_0_3_125
*1293 FILLER_0_3_137
*1294 FILLER_0_3_149
*1295 FILLER_0_3_15
*1296 FILLER_0_3_161
*1297 FILLER_0_3_167
*1298 FILLER_0_3_169
*1299 FILLER_0_3_181
*1300 FILLER_0_3_193
*1301 FILLER_0_3_205
*1302 FILLER_0_3_217
*1303 FILLER_0_3_223
*1304 FILLER_0_3_225
*1305 FILLER_0_3_237
*1306 FILLER_0_3_249
*1307 FILLER_0_3_261
*1308 FILLER_0_3_27
*1309 FILLER_0_3_273
*1310 FILLER_0_3_279
*1311 FILLER_0_3_281
*1312 FILLER_0_3_293
*1313 FILLER_0_3_3
*1314 FILLER_0_3_305
*1315 FILLER_0_3_317
*1316 FILLER_0_3_329
*1317 FILLER_0_3_39
*1318 FILLER_0_3_51
*1319 FILLER_0_3_55
*1320 FILLER_0_3_57
*1321 FILLER_0_3_69
*1322 FILLER_0_3_81
*1323 FILLER_0_3_93
*1324 FILLER_0_4_109
*1325 FILLER_0_4_121
*1326 FILLER_0_4_133
*1327 FILLER_0_4_139
*1328 FILLER_0_4_141
*1329 FILLER_0_4_15
*1330 FILLER_0_4_153
*1331 FILLER_0_4_165
*1332 FILLER_0_4_177
*1333 FILLER_0_4_189
*1334 FILLER_0_4_195
*1335 FILLER_0_4_197
*1336 FILLER_0_4_209
*1337 FILLER_0_4_221
*1338 FILLER_0_4_233
*1339 FILLER_0_4_245
*1340 FILLER_0_4_251
*1341 FILLER_0_4_253
*1342 FILLER_0_4_265
*1343 FILLER_0_4_27
*1344 FILLER_0_4_277
*1345 FILLER_0_4_289
*1346 FILLER_0_4_29
*1347 FILLER_0_4_3
*1348 FILLER_0_4_301
*1349 FILLER_0_4_307
*1350 FILLER_0_4_309
*1351 FILLER_0_4_321
*1352 FILLER_0_4_333
*1353 FILLER_0_4_41
*1354 FILLER_0_4_53
*1355 FILLER_0_4_65
*1356 FILLER_0_4_77
*1357 FILLER_0_4_83
*1358 FILLER_0_4_85
*1359 FILLER_0_4_97
*1360 FILLER_0_5_105
*1361 FILLER_0_5_111
*1362 FILLER_0_5_113
*1363 FILLER_0_5_125
*1364 FILLER_0_5_137
*1365 FILLER_0_5_149
*1366 FILLER_0_5_15
*1367 FILLER_0_5_161
*1368 FILLER_0_5_167
*1369 FILLER_0_5_169
*1370 FILLER_0_5_181
*1371 FILLER_0_5_193
*1372 FILLER_0_5_205
*1373 FILLER_0_5_217
*1374 FILLER_0_5_223
*1375 FILLER_0_5_225
*1376 FILLER_0_5_237
*1377 FILLER_0_5_249
*1378 FILLER_0_5_261
*1379 FILLER_0_5_27
*1380 FILLER_0_5_273
*1381 FILLER_0_5_279
*1382 FILLER_0_5_281
*1383 FILLER_0_5_293
*1384 FILLER_0_5_3
*1385 FILLER_0_5_305
*1386 FILLER_0_5_317
*1387 FILLER_0_5_329
*1388 FILLER_0_5_39
*1389 FILLER_0_5_51
*1390 FILLER_0_5_55
*1391 FILLER_0_5_57
*1392 FILLER_0_5_69
*1393 FILLER_0_5_81
*1394 FILLER_0_5_93
*1395 FILLER_0_6_109
*1396 FILLER_0_6_121
*1397 FILLER_0_6_133
*1398 FILLER_0_6_139
*1399 FILLER_0_6_141
*1400 FILLER_0_6_15
*1401 FILLER_0_6_153
*1402 FILLER_0_6_165
*1403 FILLER_0_6_177
*1404 FILLER_0_6_189
*1405 FILLER_0_6_195
*1406 FILLER_0_6_197
*1407 FILLER_0_6_209
*1408 FILLER_0_6_221
*1409 FILLER_0_6_233
*1410 FILLER_0_6_245
*1411 FILLER_0_6_251
*1412 FILLER_0_6_253
*1413 FILLER_0_6_265
*1414 FILLER_0_6_27
*1415 FILLER_0_6_277
*1416 FILLER_0_6_289
*1417 FILLER_0_6_29
*1418 FILLER_0_6_3
*1419 FILLER_0_6_301
*1420 FILLER_0_6_307
*1421 FILLER_0_6_309
*1422 FILLER_0_6_321
*1423 FILLER_0_6_333
*1424 FILLER_0_6_41
*1425 FILLER_0_6_53
*1426 FILLER_0_6_65
*1427 FILLER_0_6_77
*1428 FILLER_0_6_83
*1429 FILLER_0_6_85
*1430 FILLER_0_6_97
*1431 FILLER_0_7_105
*1432 FILLER_0_7_111
*1433 FILLER_0_7_113
*1434 FILLER_0_7_125
*1435 FILLER_0_7_137
*1436 FILLER_0_7_149
*1437 FILLER_0_7_15
*1438 FILLER_0_7_161
*1439 FILLER_0_7_167
*1440 FILLER_0_7_169
*1441 FILLER_0_7_181
*1442 FILLER_0_7_193
*1443 FILLER_0_7_205
*1444 FILLER_0_7_217
*1445 FILLER_0_7_223
*1446 FILLER_0_7_225
*1447 FILLER_0_7_237
*1448 FILLER_0_7_249
*1449 FILLER_0_7_261
*1450 FILLER_0_7_27
*1451 FILLER_0_7_273
*1452 FILLER_0_7_279
*1453 FILLER_0_7_281
*1454 FILLER_0_7_293
*1455 FILLER_0_7_3
*1456 FILLER_0_7_305
*1457 FILLER_0_7_317
*1458 FILLER_0_7_329
*1459 FILLER_0_7_39
*1460 FILLER_0_7_51
*1461 FILLER_0_7_55
*1462 FILLER_0_7_57
*1463 FILLER_0_7_69
*1464 FILLER_0_7_81
*1465 FILLER_0_7_93
*1466 FILLER_0_8_109
*1467 FILLER_0_8_121
*1468 FILLER_0_8_133
*1469 FILLER_0_8_139
*1470 FILLER_0_8_141
*1471 FILLER_0_8_15
*1472 FILLER_0_8_153
*1473 FILLER_0_8_165
*1474 FILLER_0_8_177
*1475 FILLER_0_8_189
*1476 FILLER_0_8_195
*1477 FILLER_0_8_197
*1478 FILLER_0_8_209
*1479 FILLER_0_8_221
*1480 FILLER_0_8_233
*1481 FILLER_0_8_245
*1482 FILLER_0_8_251
*1483 FILLER_0_8_253
*1484 FILLER_0_8_265
*1485 FILLER_0_8_27
*1486 FILLER_0_8_277
*1487 FILLER_0_8_289
*1488 FILLER_0_8_29
*1489 FILLER_0_8_3
*1490 FILLER_0_8_301
*1491 FILLER_0_8_307
*1492 FILLER_0_8_309
*1493 FILLER_0_8_321
*1494 FILLER_0_8_333
*1495 FILLER_0_8_41
*1496 FILLER_0_8_53
*1497 FILLER_0_8_65
*1498 FILLER_0_8_77
*1499 FILLER_0_8_83
*1500 FILLER_0_8_85
*1501 FILLER_0_8_97
*1502 FILLER_0_9_105
*1503 FILLER_0_9_111
*1504 FILLER_0_9_113
*1505 FILLER_0_9_125