*SPEF "ieee 1481-1999"
*DESIGN "tt_um_wokwi_395599496098067457"
*DATE "14:21:37 Friday April 19, 2024"
*VENDOR "The OpenROAD Project"
*PROGRAM "OpenROAD"
*VERSION "0889970d1790a2617e69f253221b8bd7626e51dc"
*DESIGN_FLOW "NAME_SCOPE LOCAL" "PIN_CAP NONE"
*DIVIDER /
*DELIMITER :
*BUS_DELIMITER []
*T_UNIT 1 NS
*C_UNIT 1 PF
*R_UNIT 1 OHM
*L_UNIT 1 HENRY

*NAME_MAP
*3 clk
*4 ena
*5 rst_n
*6 ui_in[0]
*7 ui_in[1]
*8 ui_in[2]
*9 ui_in[3]
*10 ui_in[4]
*11 ui_in[5]
*12 ui_in[6]
*13 ui_in[7]
*14 uio_in[0]
*15 uio_in[1]
*16 uio_in[2]
*17 uio_in[3]
*18 uio_in[4]
*19 uio_in[5]
*20 uio_in[6]
*21 uio_in[7]
*22 net3
*23 net4
*24 net5
*25 net6
*26 net7
*27 net8
*28 net9
*29 net10
*30 net11
*31 net12
*32 net13
*33 net14
*34 net15
*35 net16
*36 net17
*37 net18
*38 uo_out[0]
*39 uo_out[1]
*40 uo_out[2]
*41 uo_out[3]
*42 uo_out[4]
*43 uo_out[5]
*44 uo_out[6]
*45 net19
*46 _00_
*47 _01_
*48 _02_
*49 _03_
*50 _04_
*51 _05_
*52 _06_
*53 _07_
*54 _08_
*55 _09_
*56 _10_
*57 _11_
*58 _12_
*59 _13_
*60 _14_
*61 _15_
*62 _16_
*63 _17_
*64 _18_
*65 _19_
*66 _20_
*67 _21_
*68 _22_
*69 and1\.b
*70 and10\.b
*71 and11\.b
*72 and16\.a
*73 and2\.b
*74 and2\.out
*75 and20\.out
*76 and3\.out
*77 and33\.a
*78 and4\.out
*79 and7\.out
*80 clknet_0_clk
*81 clknet_1_0__leaf_clk
*82 clknet_1_1__leaf_clk
*83 flop7\.d
*84 net1
*85 net2
*86 net20
*87 net21
*88 net22
*89 net23
*90 net24
*91 net25
*92 net26
*93 net27
*94 net28
*95 or20\.out
*96 or22\.out
*97 or23\.out
*98 or25\.out
*99 or28\.out
*100 or32\.out
*101 or33\.out
*102 FILLER_0_0_109
*103 FILLER_0_0_113
*104 FILLER_0_0_125
*105 FILLER_0_0_137
*106 FILLER_0_0_141
*107 FILLER_0_0_15
*108 FILLER_0_0_153
*109 FILLER_0_0_165
*110 FILLER_0_0_169
*111 FILLER_0_0_181
*112 FILLER_0_0_193
*113 FILLER_0_0_197
*114 FILLER_0_0_209
*115 FILLER_0_0_221
*116 FILLER_0_0_225
*117 FILLER_0_0_237
*118 FILLER_0_0_249
*119 FILLER_0_0_253
*120 FILLER_0_0_265
*121 FILLER_0_0_27
*122 FILLER_0_0_277
*123 FILLER_0_0_281
*124 FILLER_0_0_29
*125 FILLER_0_0_293
*126 FILLER_0_0_3
*127 FILLER_0_0_305
*128 FILLER_0_0_309
*129 FILLER_0_0_321
*130 FILLER_0_0_333
*131 FILLER_0_0_41
*132 FILLER_0_0_53
*133 FILLER_0_0_57
*134 FILLER_0_0_69
*135 FILLER_0_0_81
*136 FILLER_0_0_85
*137 FILLER_0_0_97
*138 FILLER_0_10_109
*139 FILLER_0_10_121
*140 FILLER_0_10_133
*141 FILLER_0_10_139
*142 FILLER_0_10_141
*143 FILLER_0_10_15
*144 FILLER_0_10_153
*145 FILLER_0_10_165
*146 FILLER_0_10_177
*147 FILLER_0_10_189
*148 FILLER_0_10_195
*149 FILLER_0_10_197
*150 FILLER_0_10_209
*151 FILLER_0_10_221
*152 FILLER_0_10_233
*153 FILLER_0_10_245
*154 FILLER_0_10_251
*155 FILLER_0_10_253
*156 FILLER_0_10_265
*157 FILLER_0_10_27
*158 FILLER_0_10_277
*159 FILLER_0_10_289
*160 FILLER_0_10_29
*161 FILLER_0_10_3
*162 FILLER_0_10_301
*163 FILLER_0_10_307
*164 FILLER_0_10_309
*165 FILLER_0_10_321
*166 FILLER_0_10_333
*167 FILLER_0_10_41
*168 FILLER_0_10_53
*169 FILLER_0_10_65
*170 FILLER_0_10_77
*171 FILLER_0_10_83
*172 FILLER_0_10_85
*173 FILLER_0_10_97
*174 FILLER_0_11_105
*175 FILLER_0_11_111
*176 FILLER_0_11_113
*177 FILLER_0_11_125
*178 FILLER_0_11_137
*179 FILLER_0_11_149
*180 FILLER_0_11_15
*181 FILLER_0_11_161
*182 FILLER_0_11_167
*183 FILLER_0_11_169
*184 FILLER_0_11_181
*185 FILLER_0_11_193
*186 FILLER_0_11_205
*187 FILLER_0_11_217
*188 FILLER_0_11_223
*189 FILLER_0_11_225
*190 FILLER_0_11_237
*191 FILLER_0_11_249
*192 FILLER_0_11_261
*193 FILLER_0_11_27
*194 FILLER_0_11_273
*195 FILLER_0_11_279
*196 FILLER_0_11_281
*197 FILLER_0_11_293
*198 FILLER_0_11_3
*199 FILLER_0_11_305
*200 FILLER_0_11_317
*201 FILLER_0_11_329
*202 FILLER_0_11_39
*203 FILLER_0_11_51
*204 FILLER_0_11_55
*205 FILLER_0_11_57
*206 FILLER_0_11_69
*207 FILLER_0_11_81
*208 FILLER_0_11_93
*209 FILLER_0_12_109
*210 FILLER_0_12_121
*211 FILLER_0_12_133
*212 FILLER_0_12_139
*213 FILLER_0_12_141
*214 FILLER_0_12_15
*215 FILLER_0_12_153
*216 FILLER_0_12_165
*217 FILLER_0_12_177
*218 FILLER_0_12_189
*219 FILLER_0_12_195
*220 FILLER_0_12_197
*221 FILLER_0_12_209
*222 FILLER_0_12_221
*223 FILLER_0_12_233
*224 FILLER_0_12_245
*225 FILLER_0_12_251
*226 FILLER_0_12_253
*227 FILLER_0_12_265
*228 FILLER_0_12_27
*229 FILLER_0_12_277
*230 FILLER_0_12_289
*231 FILLER_0_12_29
*232 FILLER_0_12_3
*233 FILLER_0_12_301
*234 FILLER_0_12_307
*235 FILLER_0_12_309
*236 FILLER_0_12_321
*237 FILLER_0_12_333
*238 FILLER_0_12_41
*239 FILLER_0_12_53
*240 FILLER_0_12_65
*241 FILLER_0_12_77
*242 FILLER_0_12_83
*243 FILLER_0_12_85
*244 FILLER_0_12_97
*245 FILLER_0_13_105
*246 FILLER_0_13_111
*247 FILLER_0_13_113
*248 FILLER_0_13_125
*249 FILLER_0_13_137
*250 FILLER_0_13_149
*251 FILLER_0_13_15
*252 FILLER_0_13_161
*253 FILLER_0_13_167
*254 FILLER_0_13_169
*255 FILLER_0_13_181
*256 FILLER_0_13_193
*257 FILLER_0_13_205
*258 FILLER_0_13_217
*259 FILLER_0_13_223
*260 FILLER_0_13_225
*261 FILLER_0_13_237
*262 FILLER_0_13_249
*263 FILLER_0_13_261
*264 FILLER_0_13_27
*265 FILLER_0_13_273
*266 FILLER_0_13_279
*267 FILLER_0_13_281
*268 FILLER_0_13_293
*269 FILLER_0_13_3
*270 FILLER_0_13_305
*271 FILLER_0_13_317
*272 FILLER_0_13_329
*273 FILLER_0_13_39
*274 FILLER_0_13_51
*275 FILLER_0_13_55
*276 FILLER_0_13_57
*277 FILLER_0_13_69
*278 FILLER_0_13_81
*279 FILLER_0_13_93
*280 FILLER_0_14_109
*281 FILLER_0_14_121
*282 FILLER_0_14_133
*283 FILLER_0_14_139
*284 FILLER_0_14_141
*285 FILLER_0_14_15
*286 FILLER_0_14_153
*287 FILLER_0_14_165
*288 FILLER_0_14_177
*289 FILLER_0_14_189
*290 FILLER_0_14_195
*291 FILLER_0_14_197
*292 FILLER_0_14_209
*293 FILLER_0_14_221
*294 FILLER_0_14_233
*295 FILLER_0_14_245
*296 FILLER_0_14_251
*297 FILLER_0_14_253
*298 FILLER_0_14_265
*299 FILLER_0_14_27
*300 FILLER_0_14_277
*301 FILLER_0_14_289
*302 FILLER_0_14_29
*303 FILLER_0_14_3
*304 FILLER_0_14_301
*305 FILLER_0_14_307
*306 FILLER_0_14_309
*307 FILLER_0_14_321
*308 FILLER_0_14_333
*309 FILLER_0_14_41
*310 FILLER_0_14_53
*311 FILLER_0_14_65
*312 FILLER_0_14_77
*313 FILLER_0_14_83
*314 FILLER_0_14_85
*315 FILLER_0_14_97
*316 FILLER_0_15_105
*317 FILLER_0_15_111
*318 FILLER_0_15_113
*319 FILLER_0_15_125
*320 FILLER_0_15_137
*321 FILLER_0_15_149
*322 FILLER_0_15_15
*323 FILLER_0_15_161
*324 FILLER_0_15_167
*325 FILLER_0_15_169
*326 FILLER_0_15_181
*327 FILLER_0_15_193
*328 FILLER_0_15_205
*329 FILLER_0_15_217
*330 FILLER_0_15_223
*331 FILLER_0_15_225
*332 FILLER_0_15_237
*333 FILLER_0_15_249
*334 FILLER_0_15_261
*335 FILLER_0_15_27
*336 FILLER_0_15_273
*337 FILLER_0_15_279
*338 FILLER_0_15_281
*339 FILLER_0_15_293
*340 FILLER_0_15_3
*341 FILLER_0_15_305
*342 FILLER_0_15_317
*343 FILLER_0_15_329
*344 FILLER_0_15_39
*345 FILLER_0_15_51
*346 FILLER_0_15_55
*347 FILLER_0_15_57
*348 FILLER_0_15_69
*349 FILLER_0_15_81
*350 FILLER_0_15_93
*351 FILLER_0_16_109
*352 FILLER_0_16_121
*353 FILLER_0_16_133
*354 FILLER_0_16_139
*355 FILLER_0_16_141
*356 FILLER_0_16_15
*357 FILLER_0_16_153
*358 FILLER_0_16_165
*359 FILLER_0_16_177
*360 FILLER_0_16_189
*361 FILLER_0_16_195
*362 FILLER_0_16_197
*363 FILLER_0_16_209
*364 FILLER_0_16_221
*365 FILLER_0_16_233
*366 FILLER_0_16_245
*367 FILLER_0_16_251
*368 FILLER_0_16_253
*369 FILLER_0_16_265
*370 FILLER_0_16_27
*371 FILLER_0_16_277
*372 FILLER_0_16_289
*373 FILLER_0_16_29
*374 FILLER_0_16_3
*375 FILLER_0_16_301
*376 FILLER_0_16_307
*377 FILLER_0_16_309
*378 FILLER_0_16_321
*379 FILLER_0_16_333
*380 FILLER_0_16_41
*381 FILLER_0_16_53
*382 FILLER_0_16_65
*383 FILLER_0_16_77
*384 FILLER_0_16_83
*385 FILLER_0_16_85
*386 FILLER_0_16_97
*387 FILLER_0_17_105
*388 FILLER_0_17_111
*389 FILLER_0_17_113
*390 FILLER_0_17_125
*391 FILLER_0_17_137
*392 FILLER_0_17_149
*393 FILLER_0_17_15
*394 FILLER_0_17_161
*395 FILLER_0_17_167
*396 FILLER_0_17_169
*397 FILLER_0_17_181
*398 FILLER_0_17_193
*399 FILLER_0_17_205
*400 FILLER_0_17_217
*401 FILLER_0_17_223
*402 FILLER_0_17_225
*403 FILLER_0_17_237
*404 FILLER_0_17_249
*405 FILLER_0_17_261
*406 FILLER_0_17_27
*407 FILLER_0_17_273
*408 FILLER_0_17_279
*409 FILLER_0_17_281
*410 FILLER_0_17_293
*411 FILLER_0_17_3
*412 FILLER_0_17_305
*413 FILLER_0_17_317
*414 FILLER_0_17_329
*415 FILLER_0_17_39
*416 FILLER_0_17_51
*417 FILLER_0_17_55
*418 FILLER_0_17_57
*419 FILLER_0_17_69
*420 FILLER_0_17_81
*421 FILLER_0_17_93
*422 FILLER_0_18_109
*423 FILLER_0_18_121
*424 FILLER_0_18_133
*425 FILLER_0_18_139
*426 FILLER_0_18_141
*427 FILLER_0_18_15
*428 FILLER_0_18_153
*429 FILLER_0_18_165
*430 FILLER_0_18_177
*431 FILLER_0_18_189
*432 FILLER_0_18_195
*433 FILLER_0_18_197
*434 FILLER_0_18_209
*435 FILLER_0_18_221
*436 FILLER_0_18_233
*437 FILLER_0_18_245
*438 FILLER_0_18_251
*439 FILLER_0_18_253
*440 FILLER_0_18_265
*441 FILLER_0_18_27
*442 FILLER_0_18_277
*443 FILLER_0_18_289
*444 FILLER_0_18_29
*445 FILLER_0_18_3
*446 FILLER_0_18_301
*447 FILLER_0_18_307
*448 FILLER_0_18_309
*449 FILLER_0_18_321
*450 FILLER_0_18_333
*451 FILLER_0_18_41
*452 FILLER_0_18_53
*453 FILLER_0_18_65
*454 FILLER_0_18_77
*455 FILLER_0_18_83
*456 FILLER_0_18_85
*457 FILLER_0_18_97
*458 FILLER_0_19_105
*459 FILLER_0_19_111
*460 FILLER_0_19_113
*461 FILLER_0_19_125
*462 FILLER_0_19_137
*463 FILLER_0_19_149
*464 FILLER_0_19_15
*465 FILLER_0_19_161
*466 FILLER_0_19_167
*467 FILLER_0_19_169
*468 FILLER_0_19_181
*469 FILLER_0_19_193
*470 FILLER_0_19_205
*471 FILLER_0_19_217
*472 FILLER_0_19_223
*473 FILLER_0_19_225
*474 FILLER_0_19_237
*475 FILLER_0_19_249
*476 FILLER_0_19_261
*477 FILLER_0_19_27
*478 FILLER_0_19_273
*479 FILLER_0_19_279
*480 FILLER_0_19_281
*481 FILLER_0_19_293
*482 FILLER_0_19_3
*483 FILLER_0_19_305
*484 FILLER_0_19_317
*485 FILLER_0_19_329
*486 FILLER_0_19_39
*487 FILLER_0_19_51
*488 FILLER_0_19_55
*489 FILLER_0_19_57
*490 FILLER_0_19_69
*491 FILLER_0_19_81
*492 FILLER_0_19_93
*493 FILLER_0_1_105
*494 FILLER_0_1_111
*495 FILLER_0_1_113
*496 FILLER_0_1_125
*497 FILLER_0_1_137
*498 FILLER_0_1_149
*499 FILLER_0_1_15
*500 FILLER_0_1_161
*501 FILLER_0_1_167
*502 FILLER_0_1_169
*503 FILLER_0_1_181
*504 FILLER_0_1_193
*505 FILLER_0_1_205
*506 FILLER_0_1_217
*507 FILLER_0_1_223
*508 FILLER_0_1_225
*509 FILLER_0_1_237
*510 FILLER_0_1_249
*511 FILLER_0_1_261
*512 FILLER_0_1_27
*513 FILLER_0_1_273
*514 FILLER_0_1_279
*515 FILLER_0_1_281
*516 FILLER_0_1_293
*517 FILLER_0_1_3
*518 FILLER_0_1_305
*519 FILLER_0_1_317
*520 FILLER_0_1_329
*521 FILLER_0_1_39
*522 FILLER_0_1_51
*523 FILLER_0_1_55
*524 FILLER_0_1_57
*525 FILLER_0_1_69
*526 FILLER_0_1_81
*527 FILLER_0_1_93
*528 FILLER_0_20_109
*529 FILLER_0_20_121
*530 FILLER_0_20_133
*531 FILLER_0_20_139
*532 FILLER_0_20_141
*533 FILLER_0_20_15
*534 FILLER_0_20_153
*535 FILLER_0_20_165
*536 FILLER_0_20_177
*537 FILLER_0_20_189
*538 FILLER_0_20_195
*539 FILLER_0_20_197
*540 FILLER_0_20_209
*541 FILLER_0_20_221
*542 FILLER_0_20_233
*543 FILLER_0_20_245
*544 FILLER_0_20_251
*545 FILLER_0_20_253
*546 FILLER_0_20_265
*547 FILLER_0_20_27
*548 FILLER_0_20_277
*549 FILLER_0_20_289
*550 FILLER_0_20_29
*551 FILLER_0_20_3
*552 FILLER_0_20_301
*553 FILLER_0_20_307
*554 FILLER_0_20_309
*555 FILLER_0_20_321
*556 FILLER_0_20_333
*557 FILLER_0_20_41
*558 FILLER_0_20_53
*559 FILLER_0_20_65
*560 FILLER_0_20_77
*561 FILLER_0_20_83
*562 FILLER_0_20_85
*563 FILLER_0_20_97
*564 FILLER_0_21_105
*565 FILLER_0_21_111
*566 FILLER_0_21_113
*567 FILLER_0_21_125
*568 FILLER_0_21_137
*569 FILLER_0_21_149
*570 FILLER_0_21_15
*571 FILLER_0_21_161
*572 FILLER_0_21_167
*573 FILLER_0_21_169
*574 FILLER_0_21_181
*575 FILLER_0_21_193
*576 FILLER_0_21_205
*577 FILLER_0_21_217
*578 FILLER_0_21_223
*579 FILLER_0_21_225
*580 FILLER_0_21_237
*581 FILLER_0_21_249
*582 FILLER_0_21_261
*583 FILLER_0_21_27
*584 FILLER_0_21_273
*585 FILLER_0_21_279
*586 FILLER_0_21_281
*587 FILLER_0_21_293
*588 FILLER_0_21_3
*589 FILLER_0_21_305
*590 FILLER_0_21_317
*591 FILLER_0_21_329
*592 FILLER_0_21_39
*593 FILLER_0_21_51
*594 FILLER_0_21_55
*595 FILLER_0_21_57
*596 FILLER_0_21_69
*597 FILLER_0_21_81
*598 FILLER_0_21_93
*599 FILLER_0_22_109
*600 FILLER_0_22_121
*601 FILLER_0_22_133
*602 FILLER_0_22_139
*603 FILLER_0_22_141
*604 FILLER_0_22_15
*605 FILLER_0_22_153
*606 FILLER_0_22_165
*607 FILLER_0_22_177
*608 FILLER_0_22_189
*609 FILLER_0_22_195
*610 FILLER_0_22_197
*611 FILLER_0_22_209
*612 FILLER_0_22_221
*613 FILLER_0_22_233
*614 FILLER_0_22_245
*615 FILLER_0_22_251
*616 FILLER_0_22_253
*617 FILLER_0_22_265
*618 FILLER_0_22_27
*619 FILLER_0_22_277
*620 FILLER_0_22_289
*621 FILLER_0_22_29
*622 FILLER_0_22_3
*623 FILLER_0_22_301
*624 FILLER_0_22_307
*625 FILLER_0_22_309
*626 FILLER_0_22_321
*627 FILLER_0_22_333
*628 FILLER_0_22_41
*629 FILLER_0_22_53
*630 FILLER_0_22_65
*631 FILLER_0_22_77
*632 FILLER_0_22_83
*633 FILLER_0_22_85
*634 FILLER_0_22_97
*635 FILLER_0_23_105
*636 FILLER_0_23_111
*637 FILLER_0_23_113
*638 FILLER_0_23_125
*639 FILLER_0_23_137
*640 FILLER_0_23_149
*641 FILLER_0_23_15
*642 FILLER_0_23_161
*643 FILLER_0_23_167
*644 FILLER_0_23_169
*645 FILLER_0_23_181
*646 FILLER_0_23_193
*647 FILLER_0_23_205
*648 FILLER_0_23_217
*649 FILLER_0_23_223
*650 FILLER_0_23_225
*651 FILLER_0_23_237
*652 FILLER_0_23_249
*653 FILLER_0_23_261
*654 FILLER_0_23_27
*655 FILLER_0_23_273
*656 FILLER_0_23_279
*657 FILLER_0_23_281
*658 FILLER_0_23_293
*659 FILLER_0_23_3
*660 FILLER_0_23_305
*661 FILLER_0_23_317
*662 FILLER_0_23_329
*663 FILLER_0_23_39
*664 FILLER_0_23_51
*665 FILLER_0_23_55
*666 FILLER_0_23_57
*667 FILLER_0_23_69
*668 FILLER_0_23_81
*669 FILLER_0_23_93
*670 FILLER_0_24_109
*671 FILLER_0_24_121
*672 FILLER_0_24_133
*673 FILLER_0_24_139
*674 FILLER_0_24_141
*675 FILLER_0_24_15
*676 FILLER_0_24_153
*677 FILLER_0_24_165
*678 FILLER_0_24_177
*679 FILLER_0_24_189
*680 FILLER_0_24_195
*681 FILLER_0_24_197
*682 FILLER_0_24_209
*683 FILLER_0_24_221
*684 FILLER_0_24_233
*685 FILLER_0_24_245
*686 FILLER_0_24_251
*687 FILLER_0_24_253
*688 FILLER_0_24_265
*689 FILLER_0_24_27
*690 FILLER_0_24_277
*691 FILLER_0_24_289
*692 FILLER_0_24_29
*693 FILLER_0_24_3
*694 FILLER_0_24_301
*695 FILLER_0_24_307
*696 FILLER_0_24_309
*697 FILLER_0_24_321
*698 FILLER_0_24_333
*699 FILLER_0_24_41
*700 FILLER_0_24_53
*701 FILLER_0_24_65
*702 FILLER_0_24_77
*703 FILLER_0_24_83
*704 FILLER_0_24_85
*705 FILLER_0_24_97
*706 FILLER_0_25_105
*707 FILLER_0_25_111
*708 FILLER_0_25_113
*709 FILLER_0_25_125
*710 FILLER_0_25_137
*711 FILLER_0_25_149
*712 FILLER_0_25_15
*713 FILLER_0_25_161
*714 FILLER_0_25_167
*715 FILLER_0_25_169
*716 FILLER_0_25_181
*717 FILLER_0_25_193
*718 FILLER_0_25_205
*719 FILLER_0_25_217
*720 FILLER_0_25_223
*721 FILLER_0_25_225
*722 FILLER_0_25_237
*723 FILLER_0_25_249
*724 FILLER_0_25_261
*725 FILLER_0_25_27
*726 FILLER_0_25_273
*727 FILLER_0_25_279
*728 FILLER_0_25_281
*729 FILLER_0_25_293
*730 FILLER_0_25_3
*731 FILLER_0_25_305
*732 FILLER_0_25_317
*733 FILLER_0_25_329
*734 FILLER_0_25_39
*735 FILLER_0_25_51
*736 FILLER_0_25_55
*737 FILLER_0_25_57
*738 FILLER_0_25_69
*739 FILLER_0_25_81
*740 FILLER_0_25_93
*741 FILLER_0_26_109
*742 FILLER_0_26_121
*743 FILLER_0_26_133
*744 FILLER_0_26_139
*745 FILLER_0_26_141
*746 FILLER_0_26_15
*747 FILLER_0_26_153
*748 FILLER_0_26_165
*749 FILLER_0_26_177
*750 FILLER_0_26_189
*751 FILLER_0_26_195
*752 FILLER_0_26_197
*753 FILLER_0_26_209
*754 FILLER_0_26_221
*755 FILLER_0_26_233
*756 FILLER_0_26_245
*757 FILLER_0_26_251
*758 FILLER_0_26_253
*759 FILLER_0_26_265
*760 FILLER_0_26_27
*761 FILLER_0_26_277
*762 FILLER_0_26_289
*763 FILLER_0_26_29
*764 FILLER_0_26_3
*765 FILLER_0_26_301
*766 FILLER_0_26_307
*767 FILLER_0_26_309
*768 FILLER_0_26_321
*769 FILLER_0_26_333
*770 FILLER_0_26_41
*771 FILLER_0_26_53
*772 FILLER_0_26_65
*773 FILLER_0_26_77
*774 FILLER_0_26_83
*775 FILLER_0_26_85
*776 FILLER_0_26_97
*777 FILLER_0_27_105
*778 FILLER_0_27_111
*779 FILLER_0_27_113
*780 FILLER_0_27_125
*781 FILLER_0_27_137
*782 FILLER_0_27_149
*783 FILLER_0_27_15
*784 FILLER_0_27_161
*785 FILLER_0_27_167
*786 FILLER_0_27_169
*787 FILLER_0_27_181
*788 FILLER_0_27_193
*789 FILLER_0_27_205
*790 FILLER_0_27_217
*791 FILLER_0_27_223
*792 FILLER_0_27_225
*793 FILLER_0_27_237
*794 FILLER_0_27_249
*795 FILLER_0_27_261
*796 FILLER_0_27_27
*797 FILLER_0_27_273
*798 FILLER_0_27_279
*799 FILLER_0_27_281
*800 FILLER_0_27_293
*801 FILLER_0_27_3
*802 FILLER_0_27_305
*803 FILLER_0_27_317
*804 FILLER_0_27_329
*805 FILLER_0_27_39
*806 FILLER_0_27_51
*807 FILLER_0_27_55
*808 FILLER_0_27_57
*809 FILLER_0_27_69
*810 FILLER_0_27_81
*811 FILLER_0_27_93
*812 FILLER_0_28_109
*813 FILLER_0_28_121
*814 FILLER_0_28_133
*815 FILLER_0_28_139
*816 FILLER_0_28_141
*817 FILLER_0_28_15
*818 FILLER_0_28_153
*819 FILLER_0_28_165
*820 FILLER_0_28_177
*821 FILLER_0_28_189
*822 FILLER_0_28_195
*823 FILLER_0_28_197
*824 FILLER_0_28_209
*825 FILLER_0_28_221
*826 FILLER_0_28_233
*827 FILLER_0_28_245
*828 FILLER_0_28_251
*829 FILLER_0_28_253
*830 FILLER_0_28_265
*831 FILLER_0_28_27
*832 FILLER_0_28_277
*833 FILLER_0_28_289
*834 FILLER_0_28_29
*835 FILLER_0_28_3
*836 FILLER_0_28_301
*837 FILLER_0_28_307
*838 FILLER_0_28_309
*839 FILLER_0_28_321
*840 FILLER_0_28_333
*841 FILLER_0_28_41
*842 FILLER_0_28_53
*843 FILLER_0_28_65
*844 FILLER_0_28_77
*845 FILLER_0_28_83
*846 FILLER_0_28_85
*847 FILLER_0_28_97
*848 FILLER_0_29_105
*849 FILLER_0_29_111
*850 FILLER_0_29_113
*851 FILLER_0_29_125
*852 FILLER_0_29_137
*853 FILLER_0_29_149
*854 FILLER_0_29_15
*855 FILLER_0_29_161
*856 FILLER_0_29_167
*857 FILLER_0_29_169
*858 FILLER_0_29_181
*859 FILLER_0_29_193
*860 FILLER_0_29_205
*861 FILLER_0_29_217
*862 FILLER_0_29_223
*863 FILLER_0_29_225
*864 FILLER_0_29_237
*865 FILLER_0_29_249
*866 FILLER_0_29_261
*867 FILLER_0_29_27
*868 FILLER_0_29_273
*869 FILLER_0_29_279
*870 FILLER_0_29_281
*871 FILLER_0_29_293
*872 FILLER_0_29_3
*873 FILLER_0_29_305
*874 FILLER_0_29_317
*875 FILLER_0_29_329
*876 FILLER_0_29_39
*877 FILLER_0_29_51
*878 FILLER_0_29_55
*879 FILLER_0_29_57
*880 FILLER_0_29_69
*881 FILLER_0_29_81
*882 FILLER_0_29_93
*883 FILLER_0_2_109
*884 FILLER_0_2_121
*885 FILLER_0_2_133
*886 FILLER_0_2_139
*887 FILLER_0_2_141
*888 FILLER_0_2_15
*889 FILLER_0_2_153
*890 FILLER_0_2_165
*891 FILLER_0_2_177
*892 FILLER_0_2_189
*893 FILLER_0_2_195
*894 FILLER_0_2_197
*895 FILLER_0_2_209
*896 FILLER_0_2_221
*897 FILLER_0_2_233
*898 FILLER_0_2_245
*899 FILLER_0_2_251
*900 FILLER_0_2_253
*901 FILLER_0_2_265
*902 FILLER_0_2_27
*903 FILLER_0_2_277
*904 FILLER_0_2_289
*905 FILLER_0_2_29
*906 FILLER_0_2_3
*907 FILLER_0_2_301
*908 FILLER_0_2_307
*909 FILLER_0_2_309
*910 FILLER_0_2_321
*911 FILLER_0_2_333
*912 FILLER_0_2_41
*913 FILLER_0_2_53
*914 FILLER_0_2_65
*915 FILLER_0_2_77
*916 FILLER_0_2_83
*917 FILLER_0_2_85
*918 FILLER_0_2_97
*919 FILLER_0_30_109
*920 FILLER_0_30_121
*921 FILLER_0_30_133
*922 FILLER_0_30_139
*923 FILLER_0_30_141
*924 FILLER_0_30_15
*925 FILLER_0_30_153
*926 FILLER_0_30_165
*927 FILLER_0_30_177
*928 FILLER_0_30_189
*929 FILLER_0_30_195
*930 FILLER_0_30_197
*931 FILLER_0_30_209
*932 FILLER_0_30_221
*933 FILLER_0_30_233
*934 FILLER_0_30_245
*935 FILLER_0_30_251
*936 FILLER_0_30_253
*937 FILLER_0_30_265
*938 FILLER_0_30_27
*939 FILLER_0_30_277
*940 FILLER_0_30_289
*941 FILLER_0_30_29
*942 FILLER_0_30_3
*943 FILLER_0_30_301
*944 FILLER_0_30_307
*945 FILLER_0_30_309
*946 FILLER_0_30_321
*947 FILLER_0_30_333
*948 FILLER_0_30_41
*949 FILLER_0_30_53
*950 FILLER_0_30_65
*951 FILLER_0_30_77
*952 FILLER_0_30_83
*953 FILLER_0_30_85
*954 FILLER_0_30_97
*955 FILLER_0_31_105
*956 FILLER_0_31_111
*957 FILLER_0_31_113
*958 FILLER_0_31_125
*959 FILLER_0_31_137
*960 FILLER_0_31_149
*961 FILLER_0_31_15
*962 FILLER_0_31_161
*963 FILLER_0_31_167
*964 FILLER_0_31_169
*965 FILLER_0_31_181
*966 FILLER_0_31_193
*967 FILLER_0_31_205
*968 FILLER_0_31_217
*969 FILLER_0_31_223
*970 FILLER_0_31_225
*971 FILLER_0_31_237
*972 FILLER_0_31_249
*973 FILLER_0_31_261
*974 FILLER_0_31_27
*975 FILLER_0_31_273
*976 FILLER_0_31_279
*977 FILLER_0_31_281
*978 FILLER_0_31_293
*979 FILLER_0_31_3
*980 FILLER_0_31_305
*981 FILLER_0_31_317
*982 FILLER_0_31_329
*983 FILLER_0_31_39
*984 FILLER_0_31_51
*985 FILLER_0_31_55
*986 FILLER_0_31_57
*987 FILLER_0_31_69
*988 FILLER_0_31_81
*989 FILLER_0_31_93
*990 FILLER_0_32_109
*991 FILLER_0_32_121
*992 FILLER_0_32_133
*993 FILLER_0_32_139
*994 FILLER_0_32_141
*995 FILLER_0_32_15
*996 FILLER_0_32_153
*997 FILLER_0_32_165
*998 FILLER_0_32_177
*999 FILLER_0_32_189
*1000 FILLER_0_32_195
*1001 FILLER_0_32_197
*1002 FILLER_0_32_209
*1003 FILLER_0_32_221
*1004 FILLER_0_32_233
*1005 FILLER_0_32_245
*1006 FILLER_0_32_251
*1007 FILLER_0_32_253
*1008 FILLER_0_32_265
*1009 FILLER_0_32_27
*1010 FILLER_0_32_277
*1011 FILLER_0_32_289
*1012 FILLER_0_32_29
*1013 FILLER_0_32_3
*1014 FILLER_0_32_301
*1015 FILLER_0_32_307
*1016 FILLER_0_32_309
*1017 FILLER_0_32_321
*1018 FILLER_0_32_333
*1019 FILLER_0_32_41
*1020 FILLER_0_32_53
*1021 FILLER_0_32_65
*1022 FILLER_0_32_77
*1023 FILLER_0_32_83
*1024 FILLER_0_32_85
*1025 FILLER_0_32_97
*1026 FILLER_0_33_105
*1027 FILLER_0_33_111
*1028 FILLER_0_33_113
*1029 FILLER_0_33_125
*1030 FILLER_0_33_137
*1031 FILLER_0_33_149
*1032 FILLER_0_33_15
*1033 FILLER_0_33_161
*1034 FILLER_0_33_167
*1035 FILLER_0_33_169
*1036 FILLER_0_33_181
*1037 FILLER_0_33_193
*1038 FILLER_0_33_205
*1039 FILLER_0_33_217
*1040 FILLER_0_33_223
*1041 FILLER_0_33_225
*1042 FILLER_0_33_237
*1043 FILLER_0_33_249
*1044 FILLER_0_33_261
*1045 FILLER_0_33_27
*1046 FILLER_0_33_278
*1047 FILLER_0_33_281
*1048 FILLER_0_33_293
*1049 FILLER_0_33_3
*1050 FILLER_0_33_305
*1051 FILLER_0_33_317
*1052 FILLER_0_33_329
*1053 FILLER_0_33_39
*1054 FILLER_0_33_51
*1055 FILLER_0_33_55
*1056 FILLER_0_33_57
*1057 FILLER_0_33_69
*1058 FILLER_0_33_81
*1059 FILLER_0_33_93
*1060 FILLER_0_34_109
*1061 FILLER_0_34_121
*1062 FILLER_0_34_133
*1063 FILLER_0_34_139
*1064 FILLER_0_34_141
*1065 FILLER_0_34_15
*1066 FILLER_0_34_153
*1067 FILLER_0_34_165
*1068 FILLER_0_34_177
*1069 FILLER_0_34_189
*1070 FILLER_0_34_195
*1071 FILLER_0_34_197
*1072 FILLER_0_34_209
*1073 FILLER_0_34_221
*1074 FILLER_0_34_227
*1075 FILLER_0_34_248
*1076 FILLER_0_34_27
*1077 FILLER_0_34_29
*1078 FILLER_0_34_294
*1079 FILLER_0_34_3
*1080 FILLER_0_34_306
*1081 FILLER_0_34_309
*1082 FILLER_0_34_321
*1083 FILLER_0_34_333
*1084 FILLER_0_34_41
*1085 FILLER_0_34_53
*1086 FILLER_0_34_65
*1087 FILLER_0_34_77
*1088 FILLER_0_34_83
*1089 FILLER_0_34_85
*1090 FILLER_0_34_97
*1091 FILLER_0_35_105
*1092 FILLER_0_35_111
*1093 FILLER_0_35_113
*1094 FILLER_0_35_125
*1095 FILLER_0_35_137
*1096 FILLER_0_35_149
*1097 FILLER_0_35_15
*1098 FILLER_0_35_161
*1099 FILLER_0_35_167
*1100 FILLER_0_35_169
*1101 FILLER_0_35_181
*1102 FILLER_0_35_193
*1103 FILLER_0_35_205
*1104 FILLER_0_35_217
*1105 FILLER_0_35_223
*1106 FILLER_0_35_225
*1107 FILLER_0_35_264
*1108 FILLER_0_35_268
*1109 FILLER_0_35_27
*1110 FILLER_0_35_276
*1111 FILLER_0_35_281
*1112 FILLER_0_35_3
*1113 FILLER_0_35_300
*1114 FILLER_0_35_304
*1115 FILLER_0_35_325
*1116 FILLER_0_35_333
*1117 FILLER_0_35_39
*1118 FILLER_0_35_51
*1119 FILLER_0_35_55
*1120 FILLER_0_35_57
*1121 FILLER_0_35_69
*1122 FILLER_0_35_81
*1123 FILLER_0_35_93
*1124 FILLER_0_36_109
*1125 FILLER_0_36_121
*1126 FILLER_0_36_133
*1127 FILLER_0_36_139
*1128 FILLER_0_36_141
*1129 FILLER_0_36_15
*1130 FILLER_0_36_153
*1131 FILLER_0_36_165
*1132 FILLER_0_36_177
*1133 FILLER_0_36_189
*1134 FILLER_0_36_193
*1135 FILLER_0_36_197
*1136 FILLER_0_36_205
*1137 FILLER_0_36_211
*1138 FILLER_0_36_223
*1139 FILLER_0_36_235
*1140 FILLER_0_36_244
*1141 FILLER_0_36_248
*1142 FILLER_0_36_253
*1143 FILLER_0_36_257
*1144 FILLER_0_36_27
*1145 FILLER_0_36_279
*1146 FILLER_0_36_283
*1147 FILLER_0_36_29
*1148 FILLER_0_36_3
*1149 FILLER_0_36_307
*1150 FILLER_0_36_325
*1151 FILLER_0_36_333
*1152 FILLER_0_36_41
*1153 FILLER_0_36_53
*1154 FILLER_0_36_65
*1155 FILLER_0_36_77
*1156 FILLER_0_36_83
*1157 FILLER_0_36_85
*1158 FILLER_0_36_97
*1159 FILLER_0_37_105
*1160 FILLER_0_37_111
*1161 FILLER_0_37_113
*1162 FILLER_0_37_125
*1163 FILLER_0_37_137
*1164 FILLER_0_37_144
*1165 FILLER_0_37_15
*1166 FILLER_0_37_152
*1167 FILLER_0_37_156
*1168 FILLER_0_37_169
*1169 FILLER_0_37_177
*1170 FILLER_0_37_231
*1171 FILLER_0_37_246
*1172 FILLER_0_37_262
*1173 FILLER_0_37_27
*1174 FILLER_0_37_277
*1175 FILLER_0_37_3
*1176 FILLER_0_37_323
*1177 FILLER_0_37_39
*1178 FILLER_0_37_51
*1179 FILLER_0_37_55
*1180 FILLER_0_37_57
*1181 FILLER_0_37_69
*1182 FILLER_0_37_81
*1183 FILLER_0_37_93
*1184 FILLER_0_38_10
*1185 FILLER_0_38_102
*1186 FILLER_0_38_106
*1187 FILLER_0_38_110
*1188 FILLER_0_38_113
*1189 FILLER_0_38_118
*1190 FILLER_0_38_122
*1191 FILLER_0_38_126
*1192 FILLER_0_38_130
*1193 FILLER_0_38_134
*1194 FILLER_0_38_14
*1195 FILLER_0_38_145
*1196 FILLER_0_38_149
*1197 FILLER_0_38_154
*1198 FILLER_0_38_169
*1199 FILLER_0_38_174
*1200 FILLER_0_38_178
*1201 FILLER_0_38_18
*1202 FILLER_0_38_183
*1203 FILLER_0_38_192
*1204 FILLER_0_38_197
*1205 FILLER_0_38_205
*1206 FILLER_0_38_212
*1207 FILLER_0_38_218
*1208 FILLER_0_38_22
*1209 FILLER_0_38_225
*1210 FILLER_0_38_237
*1211 FILLER_0_38_247
*1212 FILLER_0_38_251
*1213 FILLER_0_38_253
*1214 FILLER_0_38_261
*1215 FILLER_0_38_274
*1216 FILLER_0_38_281
*1217 FILLER_0_38_307
*1218 FILLER_0_38_313
*1219 FILLER_0_38_32
*1220 FILLER_0_38_323
*1221 FILLER_0_38_38
*1222 FILLER_0_38_42
*1223 FILLER_0_38_46
*1224 FILLER_0_38_50
*1225 FILLER_0_38_54
*1226 FILLER_0_38_57
*1227 FILLER_0_38_6
*1228 FILLER_0_38_62
*1229 FILLER_0_38_66
*1230 FILLER_0_38_70
*1231 FILLER_0_38_74
*1232 FILLER_0_38_78
*1233 FILLER_0_38_88
*1234 FILLER_0_38_94
*1235 FILLER_0_38_98
*1236 FILLER_0_3_105
*1237 FILLER_0_3_111
*1238 FILLER_0_3_113
*1239 FILLER_0_3_125
*1240 FILLER_0_3_137
*1241 FILLER_0_3_149
*1242 FILLER_0_3_15
*1243 FILLER_0_3_161
*1244 FILLER_0_3_167
*1245 FILLER_0_3_169
*1246 FILLER_0_3_181
*1247 FILLER_0_3_193
*1248 FILLER_0_3_205
*1249 FILLER_0_3_217
*1250 FILLER_0_3_223
*1251 FILLER_0_3_225
*1252 FILLER_0_3_237
*1253 FILLER_0_3_249
*1254 FILLER_0_3_261
*1255 FILLER_0_3_27
*1256 FILLER_0_3_273
*1257 FILLER_0_3_279
*1258 FILLER_0_3_281
*1259 FILLER_0_3_293
*1260 FILLER_0_3_3
*1261 FILLER_0_3_305
*1262 FILLER_0_3_317
*1263 FILLER_0_3_329
*1264 FILLER_0_3_39
*1265 FILLER_0_3_51
*1266 FILLER_0_3_55
*1267 FILLER_0_3_57
*1268 FILLER_0_3_69
*1269 FILLER_0_3_81
*1270 FILLER_0_3_93
*1271 FILLER_0_4_109
*1272 FILLER_0_4_121
*1273 FILLER_0_4_133
*1274 FILLER_0_4_139
*1275 FILLER_0_4_141
*1276 FILLER_0_4_15
*1277 FILLER_0_4_153
*1278 FILLER_0_4_165
*1279 FILLER_0_4_177
*1280 FILLER_0_4_189
*1281 FILLER_0_4_195
*1282 FILLER_0_4_197
*1283 FILLER_0_4_209
*1284 FILLER_0_4_221
*1285 FILLER_0_4_233
*1286 FILLER_0_4_245
*1287 FILLER_0_4_251
*1288 FILLER_0_4_253
*1289 FILLER_0_4_265
*1290 FILLER_0_4_27
*1291 FILLER_0_4_277
*1292 FILLER_0_4_289
*1293 FILLER_0_4_29
*1294 FILLER_0_4_3
*1295 FILLER_0_4_301
*1296 FILLER_0_4_307
*1297 FILLER_0_4_309
*1298 FILLER_0_4_321
*1299 FILLER_0_4_333
*1300 FILLER_0_4_41
*1301 FILLER_0_4_53
*1302 FILLER_0_4_65
*1303 FILLER_0_4_77
*1304 FILLER_0_4_83
*1305 FILLER_0_4_85
*1306 FILLER_0_4_97
*1307 FILLER_0_5_105
*1308 FILLER_0_5_111
*1309 FILLER_0_5_113
*1310 FILLER_0_5_125
*1311 FILLER_0_5_137
*1312 FILLER_0_5_149
*1313 FILLER_0_5_15
*1314 FILLER_0_5_161
*1315 FILLER_0_5_167
*1316 FILLER_0_5_169
*1317 FILLER_0_5_181
*1318 FILLER_0_5_193
*1319 FILLER_0_5_205
*1320 FILLER_0_5_217
*1321 FILLER_0_5_223
*1322 FILLER_0_5_225
*1323 FILLER_0_5_237
*1324 FILLER_0_5_249
*1325 FILLER_0_5_261
*1326 FILLER_0_5_27
*1327 FILLER_0_5_273
*1328 FILLER_0_5_279
*1329 FILLER_0_5_281
*1330 FILLER_0_5_293
*1331 FILLER_0_5_3
*1332 FILLER_0_5_305
*1333 FILLER_0_5_317
*1334 FILLER_0_5_329
*1335 FILLER_0_5_39
*1336 FILLER_0_5_51
*1337 FILLER_0_5_55
*1338 FILLER_0_5_57
*1339 FILLER_0_5_69
*1340 FILLER_0_5_81
*1341 FILLER_0_5_93
*1342 FILLER_0_6_109
*1343 FILLER_0_6_121
*1344 FILLER_0_6_133
*1345 FILLER_0_6_139
*1346 FILLER_0_6_141
*1347 FILLER_0_6_15
*1348 FILLER_0_6_153
*1349 FILLER_0_6_165
*1350 FILLER_0_6_177
*1351 FILLER_0_6_189
*1352 FILLER_0_6_195
*1353 FILLER_0_6_197
*1354 FILLER_0_6_209
*1355 FILLER_0_6_221
*1356 FILLER_0_6_233
*1357 FILLER_0_6_245
*1358 FILLER_0_6_251
*1359 FILLER_0_6_253
*1360 FILLER_0_6_265
*1361 FILLER_0_6_27
*1362 FILLER_0_6_277
*1363 FILLER_0_6_289
*1364 FILLER_0_6_29
*1365 FILLER_0_6_3
*1366 FILLER_0_6_301
*1367 FILLER_0_6_307
*1368 FILLER_0_6_309
*1369 FILLER_0_6_321
*1370 FILLER_0_6_333
*1371 FILLER_0_6_41
*1372 FILLER_0_6_53
*1373 FILLER_0_6_65
*1374 FILLER_0_6_77
*1375 FILLER_0_6_83
*1376 FILLER_0_6_85
*1377 FILLER_0_6_97
*1378 FILLER_0_7_105
*1379 FILLER_0_7_111
*1380 FILLER_0_7_113
*1381 FILLER_0_7_125
*1382 FILLER_0_7_137
*1383 FILLER_0_7_149
*1384 FILLER_0_7_15
*1385 FILLER_0_7_161
*1386 FILLER_0_7_167
*1387 FILLER_0_7_169
*1388 FILLER_0_7_181
*1389 FILLER_0_7_193
*1390 FILLER_0_7_205
*1391 FILLER_0_7_217
*1392 FILLER_0_7_223
*1393 FILLER_0_7_225
*1394 FILLER_0_7_237
*1395 FILLER_0_7_249
*1396 FILLER_0_7_261
*1397 FILLER_0_7_27
*1398 FILLER_0_7_273
*1399 FILLER_0_7_279
*1400 FILLER_0_7_281
*1401 FILLER_0_7_293
*1402 FILLER_0_7_3
*1403 FILLER_0_7_305
*1404 FILLER_0_7_317
*1405 FILLER_0_7_329
*1406 FILLER_0_7_39
*1407 FILLER_0_7_51
*1408 FILLER_0_7_55
*1409 FILLER_0_7_57
*1410 FILLER_0_7_69
*1411 FILLER_0_7_81
*1412 FILLER_0_7_93
*1413 FILLER_0_8_109
*1414 FILLER_0_8_121
*1415 FILLER_0_8_133
*1416 FILLER_0_8_139
*1417 FILLER_0_8_141
*1418 FILLER_0_8_15
*1419 FILLER_0_8_153
*1420 FILLER_0_8_165
*1421 FILLER_0_8_177
*1422 FILLER_0_8_189
*1423 FILLER_0_8_195
*1424 FILLER_0_8_197
*1425 FILLER_0_8_209
*1426 FILLER_0_8_221
*1427 FILLER_0_8_233
*1428 FILLER_0_8_245
*1429 FILLER_0_8_251
*1430 FILLER_0_8_253
*1431 FILLER_0_8_265
*1432 FILLER_0_8_27
*1433 FILLER_0_8_277
*1434 FILLER_0_8_289
*1435 FILLER_0_8_29
*1436 FILLER_0_8_3
*1437 FILLER_0_8_301
*1438 FILLER_0_8_307
*1439 FILLER_0_8_309
*1440 FILLER_0_8_321
*1441 FILLER_0_8_333
*1442 FILLER_0_8_41
*1443 FILLER_0_8_53
*1444 FILLER_0_8_65
*1445 FILLER_0_8_77
*1446 FILLER_0_8_83
*1447 FILLER_0_8_85
*1448 FILLER_0_8_97
*1449 FILLER_0_9_105
*1450 FILLER_0_9_111
*1451 FILLER_0_9_113
*1452 FILLER_0_9_125
*1453 FILLER_0_9_137
*1454 FILLER_0_9_149
*1455 FILLER_0_9_15
*1456 FILLER_0_9_161
*1457 FILLER_0_9_167
*1458 FILLER_0_9_169
*1459 FILLER_0_9_181
*1460 FILLER_0_9_193
*1461 FILLER_0_9_205
*1462 FILLER_0_9_217
*1463 FILLER_0_9_223
*1464 FILLER_0_9_225
*1465 FILLER_0_9_237
*1466 FILLER_0_9_249
*1467 FILLER_0_9_261
*1468 FILLER_0_9_27
*1469 FILLER_0_9_273
*1470 FILLER_0_9_279
*1471 FILLER_0_9_281
*1472 FILLER_0_9_293
*1473 FILLER_0_9_3