*SPEF "ieee 1481-1999"
*DESIGN "tt_um_wokwi_394888799427677185"
*DATE "17:18:12 Thursday April 11, 2024"
*VENDOR "The OpenROAD Project"
*PROGRAM "OpenROAD"
*VERSION "0889970d1790a2617e69f253221b8bd7626e51dc"
*DESIGN_FLOW "NAME_SCOPE LOCAL" "PIN_CAP NONE"
*DIVIDER /
*DELIMITER :
*BUS_DELIMITER []
*T_UNIT 1 NS
*C_UNIT 1 PF
*R_UNIT 1 OHM
*L_UNIT 1 HENRY

*NAME_MAP
*3 clk
*4 ena
*5 rst_n
*6 ui_in[0]
*7 ui_in[1]
*8 ui_in[2]
*9 ui_in[3]
*10 ui_in[4]
*11 ui_in[5]
*12 ui_in[6]
*13 ui_in[7]
*14 uio_in[0]
*15 uio_in[1]
*16 uio_in[2]
*17 uio_in[3]
*18 uio_in[4]
*19 uio_in[5]
*20 uio_in[6]
*21 uio_in[7]
*22 net10
*23 net11
*24 net12
*25 net13
*26 net14
*27 net15
*28 net16
*29 net17
*30 net18
*31 net19
*32 net20
*33 net21
*34 net22
*35 net23
*36 net24
*37 net25
*38 uo_out[0]
*39 uo_out[1]
*40 uo_out[2]
*41 uo_out[3]
*42 uo_out[4]
*43 uo_out[5]
*44 uo_out[6]
*45 net26
*46 _00_
*47 _01_
*48 _02_
*49 _03_
*50 _04_
*51 _05_
*52 _06_
*53 _07_
*54 _08_
*55 _09_
*56 _10_
*57 _11_
*58 _12_
*59 _13_
*60 _14_
*61 _15_
*62 _16_
*63 _17_
*64 _18_
*65 _19_
*66 and1\.out
*67 and11\.b
*68 and2\.b
*69 and2\.out
*70 and24\.b
*71 and26\.b
*72 and3\.out
*73 and39\.a
*74 and39\.b
*75 and39\.out
*76 and4\.out
*77 clknet_0_clk
*78 clknet_1_0__leaf_clk
*79 clknet_1_1__leaf_clk
*80 net1
*81 net2
*82 net27
*83 net28
*84 net29
*85 net3
*86 net4
*87 net5
*88 net6
*89 net7
*90 net8
*91 net9
*92 FILLER_0_0_109
*93 FILLER_0_0_113
*94 FILLER_0_0_125
*95 FILLER_0_0_137
*96 FILLER_0_0_141
*97 FILLER_0_0_15
*98 FILLER_0_0_153
*99 FILLER_0_0_165
*100 FILLER_0_0_169
*101 FILLER_0_0_181
*102 FILLER_0_0_193
*103 FILLER_0_0_197
*104 FILLER_0_0_209
*105 FILLER_0_0_221
*106 FILLER_0_0_225
*107 FILLER_0_0_237
*108 FILLER_0_0_249
*109 FILLER_0_0_253
*110 FILLER_0_0_265
*111 FILLER_0_0_27
*112 FILLER_0_0_277
*113 FILLER_0_0_281
*114 FILLER_0_0_29
*115 FILLER_0_0_293
*116 FILLER_0_0_3
*117 FILLER_0_0_305
*118 FILLER_0_0_309
*119 FILLER_0_0_321
*120 FILLER_0_0_333
*121 FILLER_0_0_41
*122 FILLER_0_0_53
*123 FILLER_0_0_57
*124 FILLER_0_0_69
*125 FILLER_0_0_81
*126 FILLER_0_0_85
*127 FILLER_0_0_97
*128 FILLER_0_10_109
*129 FILLER_0_10_121
*130 FILLER_0_10_133
*131 FILLER_0_10_139
*132 FILLER_0_10_141
*133 FILLER_0_10_15
*134 FILLER_0_10_153
*135 FILLER_0_10_165
*136 FILLER_0_10_177
*137 FILLER_0_10_189
*138 FILLER_0_10_195
*139 FILLER_0_10_197
*140 FILLER_0_10_209
*141 FILLER_0_10_221
*142 FILLER_0_10_233
*143 FILLER_0_10_245
*144 FILLER_0_10_251
*145 FILLER_0_10_253
*146 FILLER_0_10_265
*147 FILLER_0_10_27
*148 FILLER_0_10_277
*149 FILLER_0_10_289
*150 FILLER_0_10_29
*151 FILLER_0_10_3
*152 FILLER_0_10_301
*153 FILLER_0_10_307
*154 FILLER_0_10_309
*155 FILLER_0_10_321
*156 FILLER_0_10_333
*157 FILLER_0_10_41
*158 FILLER_0_10_53
*159 FILLER_0_10_65
*160 FILLER_0_10_77
*161 FILLER_0_10_83
*162 FILLER_0_10_85
*163 FILLER_0_10_97
*164 FILLER_0_11_105
*165 FILLER_0_11_111
*166 FILLER_0_11_113
*167 FILLER_0_11_125
*168 FILLER_0_11_137
*169 FILLER_0_11_149
*170 FILLER_0_11_15
*171 FILLER_0_11_161
*172 FILLER_0_11_167
*173 FILLER_0_11_169
*174 FILLER_0_11_181
*175 FILLER_0_11_193
*176 FILLER_0_11_205
*177 FILLER_0_11_217
*178 FILLER_0_11_223
*179 FILLER_0_11_225
*180 FILLER_0_11_237
*181 FILLER_0_11_249
*182 FILLER_0_11_261
*183 FILLER_0_11_27
*184 FILLER_0_11_273
*185 FILLER_0_11_279
*186 FILLER_0_11_281
*187 FILLER_0_11_293
*188 FILLER_0_11_3
*189 FILLER_0_11_305
*190 FILLER_0_11_317
*191 FILLER_0_11_329
*192 FILLER_0_11_39
*193 FILLER_0_11_51
*194 FILLER_0_11_55
*195 FILLER_0_11_57
*196 FILLER_0_11_69
*197 FILLER_0_11_81
*198 FILLER_0_11_93
*199 FILLER_0_12_109
*200 FILLER_0_12_121
*201 FILLER_0_12_133
*202 FILLER_0_12_139
*203 FILLER_0_12_141
*204 FILLER_0_12_15
*205 FILLER_0_12_153
*206 FILLER_0_12_165
*207 FILLER_0_12_177
*208 FILLER_0_12_189
*209 FILLER_0_12_195
*210 FILLER_0_12_197
*211 FILLER_0_12_209
*212 FILLER_0_12_221
*213 FILLER_0_12_233
*214 FILLER_0_12_245
*215 FILLER_0_12_251
*216 FILLER_0_12_253
*217 FILLER_0_12_265
*218 FILLER_0_12_27
*219 FILLER_0_12_277
*220 FILLER_0_12_289
*221 FILLER_0_12_29
*222 FILLER_0_12_3
*223 FILLER_0_12_301
*224 FILLER_0_12_307
*225 FILLER_0_12_309
*226 FILLER_0_12_321
*227 FILLER_0_12_333
*228 FILLER_0_12_41
*229 FILLER_0_12_53
*230 FILLER_0_12_65
*231 FILLER_0_12_77
*232 FILLER_0_12_83
*233 FILLER_0_12_85
*234 FILLER_0_12_97
*235 FILLER_0_13_105
*236 FILLER_0_13_111
*237 FILLER_0_13_113
*238 FILLER_0_13_125
*239 FILLER_0_13_137
*240 FILLER_0_13_149
*241 FILLER_0_13_15
*242 FILLER_0_13_161
*243 FILLER_0_13_167
*244 FILLER_0_13_169
*245 FILLER_0_13_181
*246 FILLER_0_13_193
*247 FILLER_0_13_205
*248 FILLER_0_13_217
*249 FILLER_0_13_223
*250 FILLER_0_13_225
*251 FILLER_0_13_237
*252 FILLER_0_13_249
*253 FILLER_0_13_261
*254 FILLER_0_13_27
*255 FILLER_0_13_273
*256 FILLER_0_13_279
*257 FILLER_0_13_281
*258 FILLER_0_13_293
*259 FILLER_0_13_3
*260 FILLER_0_13_305
*261 FILLER_0_13_317
*262 FILLER_0_13_329
*263 FILLER_0_13_39
*264 FILLER_0_13_51
*265 FILLER_0_13_55
*266 FILLER_0_13_57
*267 FILLER_0_13_69
*268 FILLER_0_13_81
*269 FILLER_0_13_93
*270 FILLER_0_14_109
*271 FILLER_0_14_121
*272 FILLER_0_14_133
*273 FILLER_0_14_139
*274 FILLER_0_14_141
*275 FILLER_0_14_15
*276 FILLER_0_14_153
*277 FILLER_0_14_165
*278 FILLER_0_14_177
*279 FILLER_0_14_189
*280 FILLER_0_14_195
*281 FILLER_0_14_197
*282 FILLER_0_14_209
*283 FILLER_0_14_221
*284 FILLER_0_14_233
*285 FILLER_0_14_245
*286 FILLER_0_14_251
*287 FILLER_0_14_253
*288 FILLER_0_14_265
*289 FILLER_0_14_27
*290 FILLER_0_14_277
*291 FILLER_0_14_289
*292 FILLER_0_14_29
*293 FILLER_0_14_3
*294 FILLER_0_14_301
*295 FILLER_0_14_307
*296 FILLER_0_14_309
*297 FILLER_0_14_321
*298 FILLER_0_14_333
*299 FILLER_0_14_41
*300 FILLER_0_14_53
*301 FILLER_0_14_65
*302 FILLER_0_14_77
*303 FILLER_0_14_83
*304 FILLER_0_14_85
*305 FILLER_0_14_97
*306 FILLER_0_15_105
*307 FILLER_0_15_111
*308 FILLER_0_15_113
*309 FILLER_0_15_125
*310 FILLER_0_15_137
*311 FILLER_0_15_149
*312 FILLER_0_15_15
*313 FILLER_0_15_161
*314 FILLER_0_15_167
*315 FILLER_0_15_169
*316 FILLER_0_15_181
*317 FILLER_0_15_193
*318 FILLER_0_15_205
*319 FILLER_0_15_217
*320 FILLER_0_15_223
*321 FILLER_0_15_225
*322 FILLER_0_15_237
*323 FILLER_0_15_249
*324 FILLER_0_15_261
*325 FILLER_0_15_27
*326 FILLER_0_15_273
*327 FILLER_0_15_279
*328 FILLER_0_15_281
*329 FILLER_0_15_293
*330 FILLER_0_15_3
*331 FILLER_0_15_305
*332 FILLER_0_15_317
*333 FILLER_0_15_329
*334 FILLER_0_15_39
*335 FILLER_0_15_51
*336 FILLER_0_15_55
*337 FILLER_0_15_57
*338 FILLER_0_15_69
*339 FILLER_0_15_81
*340 FILLER_0_15_93
*341 FILLER_0_16_109
*342 FILLER_0_16_121
*343 FILLER_0_16_133
*344 FILLER_0_16_139
*345 FILLER_0_16_141
*346 FILLER_0_16_15
*347 FILLER_0_16_153
*348 FILLER_0_16_165
*349 FILLER_0_16_177
*350 FILLER_0_16_189
*351 FILLER_0_16_195
*352 FILLER_0_16_197
*353 FILLER_0_16_209
*354 FILLER_0_16_221
*355 FILLER_0_16_233
*356 FILLER_0_16_245
*357 FILLER_0_16_251
*358 FILLER_0_16_253
*359 FILLER_0_16_265
*360 FILLER_0_16_27
*361 FILLER_0_16_277
*362 FILLER_0_16_289
*363 FILLER_0_16_29
*364 FILLER_0_16_3
*365 FILLER_0_16_301
*366 FILLER_0_16_307
*367 FILLER_0_16_309
*368 FILLER_0_16_321
*369 FILLER_0_16_333
*370 FILLER_0_16_41
*371 FILLER_0_16_53
*372 FILLER_0_16_65
*373 FILLER_0_16_77
*374 FILLER_0_16_83
*375 FILLER_0_16_85
*376 FILLER_0_16_97
*377 FILLER_0_17_105
*378 FILLER_0_17_111
*379 FILLER_0_17_113
*380 FILLER_0_17_125
*381 FILLER_0_17_137
*382 FILLER_0_17_149
*383 FILLER_0_17_15
*384 FILLER_0_17_161
*385 FILLER_0_17_167
*386 FILLER_0_17_169
*387 FILLER_0_17_181
*388 FILLER_0_17_193
*389 FILLER_0_17_205
*390 FILLER_0_17_217
*391 FILLER_0_17_223
*392 FILLER_0_17_225
*393 FILLER_0_17_237
*394 FILLER_0_17_249
*395 FILLER_0_17_261
*396 FILLER_0_17_27
*397 FILLER_0_17_273
*398 FILLER_0_17_279
*399 FILLER_0_17_281
*400 FILLER_0_17_293
*401 FILLER_0_17_3
*402 FILLER_0_17_305
*403 FILLER_0_17_317
*404 FILLER_0_17_329
*405 FILLER_0_17_39
*406 FILLER_0_17_51
*407 FILLER_0_17_55
*408 FILLER_0_17_57
*409 FILLER_0_17_69
*410 FILLER_0_17_81
*411 FILLER_0_17_93
*412 FILLER_0_18_109
*413 FILLER_0_18_121
*414 FILLER_0_18_133
*415 FILLER_0_18_139
*416 FILLER_0_18_141
*417 FILLER_0_18_15
*418 FILLER_0_18_153
*419 FILLER_0_18_165
*420 FILLER_0_18_177
*421 FILLER_0_18_189
*422 FILLER_0_18_195
*423 FILLER_0_18_197
*424 FILLER_0_18_209
*425 FILLER_0_18_221
*426 FILLER_0_18_233
*427 FILLER_0_18_245
*428 FILLER_0_18_251
*429 FILLER_0_18_253
*430 FILLER_0_18_265
*431 FILLER_0_18_27
*432 FILLER_0_18_277
*433 FILLER_0_18_289
*434 FILLER_0_18_29
*435 FILLER_0_18_3
*436 FILLER_0_18_301
*437 FILLER_0_18_307
*438 FILLER_0_18_309
*439 FILLER_0_18_321
*440 FILLER_0_18_333
*441 FILLER_0_18_41
*442 FILLER_0_18_53
*443 FILLER_0_18_65
*444 FILLER_0_18_77
*445 FILLER_0_18_83
*446 FILLER_0_18_85
*447 FILLER_0_18_97
*448 FILLER_0_19_105
*449 FILLER_0_19_111
*450 FILLER_0_19_113
*451 FILLER_0_19_125
*452 FILLER_0_19_137
*453 FILLER_0_19_149
*454 FILLER_0_19_15
*455 FILLER_0_19_161
*456 FILLER_0_19_167
*457 FILLER_0_19_169
*458 FILLER_0_19_181
*459 FILLER_0_19_193
*460 FILLER_0_19_205
*461 FILLER_0_19_217
*462 FILLER_0_19_223
*463 FILLER_0_19_225
*464 FILLER_0_19_237
*465 FILLER_0_19_249
*466 FILLER_0_19_261
*467 FILLER_0_19_27
*468 FILLER_0_19_273
*469 FILLER_0_19_279
*470 FILLER_0_19_281
*471 FILLER_0_19_293
*472 FILLER_0_19_3
*473 FILLER_0_19_305
*474 FILLER_0_19_317
*475 FILLER_0_19_329
*476 FILLER_0_19_39
*477 FILLER_0_19_51
*478 FILLER_0_19_55
*479 FILLER_0_19_57
*480 FILLER_0_19_69
*481 FILLER_0_19_81
*482 FILLER_0_19_93
*483 FILLER_0_1_105
*484 FILLER_0_1_111
*485 FILLER_0_1_113
*486 FILLER_0_1_125
*487 FILLER_0_1_137
*488 FILLER_0_1_149
*489 FILLER_0_1_15
*490 FILLER_0_1_161
*491 FILLER_0_1_167
*492 FILLER_0_1_169
*493 FILLER_0_1_181
*494 FILLER_0_1_193
*495 FILLER_0_1_205
*496 FILLER_0_1_217
*497 FILLER_0_1_223
*498 FILLER_0_1_225
*499 FILLER_0_1_237
*500 FILLER_0_1_249
*501 FILLER_0_1_261
*502 FILLER_0_1_27
*503 FILLER_0_1_273
*504 FILLER_0_1_279
*505 FILLER_0_1_281
*506 FILLER_0_1_293
*507 FILLER_0_1_3
*508 FILLER_0_1_305
*509 FILLER_0_1_317
*510 FILLER_0_1_329
*511 FILLER_0_1_39
*512 FILLER_0_1_51
*513 FILLER_0_1_55
*514 FILLER_0_1_57
*515 FILLER_0_1_69
*516 FILLER_0_1_81
*517 FILLER_0_1_93
*518 FILLER_0_20_109
*519 FILLER_0_20_121
*520 FILLER_0_20_133
*521 FILLER_0_20_139
*522 FILLER_0_20_141
*523 FILLER_0_20_15
*524 FILLER_0_20_153
*525 FILLER_0_20_165
*526 FILLER_0_20_177
*527 FILLER_0_20_189
*528 FILLER_0_20_195
*529 FILLER_0_20_197
*530 FILLER_0_20_209
*531 FILLER_0_20_221
*532 FILLER_0_20_233
*533 FILLER_0_20_245
*534 FILLER_0_20_251
*535 FILLER_0_20_253
*536 FILLER_0_20_265
*537 FILLER_0_20_27
*538 FILLER_0_20_277
*539 FILLER_0_20_289
*540 FILLER_0_20_29
*541 FILLER_0_20_3
*542 FILLER_0_20_301
*543 FILLER_0_20_307
*544 FILLER_0_20_309
*545 FILLER_0_20_321
*546 FILLER_0_20_333
*547 FILLER_0_20_41
*548 FILLER_0_20_53
*549 FILLER_0_20_65
*550 FILLER_0_20_77
*551 FILLER_0_20_83
*552 FILLER_0_20_85
*553 FILLER_0_20_97
*554 FILLER_0_21_105
*555 FILLER_0_21_111
*556 FILLER_0_21_113
*557 FILLER_0_21_125
*558 FILLER_0_21_137
*559 FILLER_0_21_149
*560 FILLER_0_21_15
*561 FILLER_0_21_161
*562 FILLER_0_21_167
*563 FILLER_0_21_169
*564 FILLER_0_21_181
*565 FILLER_0_21_193
*566 FILLER_0_21_205
*567 FILLER_0_21_217
*568 FILLER_0_21_223
*569 FILLER_0_21_225
*570 FILLER_0_21_237
*571 FILLER_0_21_249
*572 FILLER_0_21_261
*573 FILLER_0_21_27
*574 FILLER_0_21_273
*575 FILLER_0_21_279
*576 FILLER_0_21_281
*577 FILLER_0_21_293
*578 FILLER_0_21_3
*579 FILLER_0_21_305
*580 FILLER_0_21_317
*581 FILLER_0_21_329
*582 FILLER_0_21_39
*583 FILLER_0_21_51
*584 FILLER_0_21_55
*585 FILLER_0_21_57
*586 FILLER_0_21_69
*587 FILLER_0_21_81
*588 FILLER_0_21_93
*589 FILLER_0_22_109
*590 FILLER_0_22_121
*591 FILLER_0_22_133
*592 FILLER_0_22_139
*593 FILLER_0_22_141
*594 FILLER_0_22_15
*595 FILLER_0_22_153
*596 FILLER_0_22_165
*597 FILLER_0_22_177
*598 FILLER_0_22_189
*599 FILLER_0_22_195
*600 FILLER_0_22_197
*601 FILLER_0_22_209
*602 FILLER_0_22_221
*603 FILLER_0_22_233
*604 FILLER_0_22_245
*605 FILLER_0_22_251
*606 FILLER_0_22_253
*607 FILLER_0_22_265
*608 FILLER_0_22_27
*609 FILLER_0_22_277
*610 FILLER_0_22_289
*611 FILLER_0_22_29
*612 FILLER_0_22_3
*613 FILLER_0_22_301
*614 FILLER_0_22_307
*615 FILLER_0_22_309
*616 FILLER_0_22_321
*617 FILLER_0_22_333
*618 FILLER_0_22_41
*619 FILLER_0_22_53
*620 FILLER_0_22_65
*621 FILLER_0_22_77
*622 FILLER_0_22_83
*623 FILLER_0_22_85
*624 FILLER_0_22_97
*625 FILLER_0_23_105
*626 FILLER_0_23_111
*627 FILLER_0_23_113
*628 FILLER_0_23_125
*629 FILLER_0_23_137
*630 FILLER_0_23_149
*631 FILLER_0_23_15
*632 FILLER_0_23_161
*633 FILLER_0_23_167
*634 FILLER_0_23_169
*635 FILLER_0_23_181
*636 FILLER_0_23_193
*637 FILLER_0_23_205
*638 FILLER_0_23_217
*639 FILLER_0_23_223
*640 FILLER_0_23_225
*641 FILLER_0_23_237
*642 FILLER_0_23_249
*643 FILLER_0_23_261
*644 FILLER_0_23_27
*645 FILLER_0_23_273
*646 FILLER_0_23_279
*647 FILLER_0_23_281
*648 FILLER_0_23_293
*649 FILLER_0_23_3
*650 FILLER_0_23_305
*651 FILLER_0_23_317
*652 FILLER_0_23_329
*653 FILLER_0_23_39
*654 FILLER_0_23_51
*655 FILLER_0_23_55
*656 FILLER_0_23_57
*657 FILLER_0_23_69
*658 FILLER_0_23_81
*659 FILLER_0_23_93
*660 FILLER_0_24_109
*661 FILLER_0_24_121
*662 FILLER_0_24_133
*663 FILLER_0_24_139
*664 FILLER_0_24_141
*665 FILLER_0_24_15
*666 FILLER_0_24_153
*667 FILLER_0_24_165
*668 FILLER_0_24_177
*669 FILLER_0_24_189
*670 FILLER_0_24_195
*671 FILLER_0_24_197
*672 FILLER_0_24_209
*673 FILLER_0_24_221
*674 FILLER_0_24_233
*675 FILLER_0_24_245
*676 FILLER_0_24_251
*677 FILLER_0_24_253
*678 FILLER_0_24_265
*679 FILLER_0_24_27
*680 FILLER_0_24_277
*681 FILLER_0_24_289
*682 FILLER_0_24_29
*683 FILLER_0_24_3
*684 FILLER_0_24_301
*685 FILLER_0_24_307
*686 FILLER_0_24_309
*687 FILLER_0_24_321
*688 FILLER_0_24_333
*689 FILLER_0_24_41
*690 FILLER_0_24_53
*691 FILLER_0_24_65
*692 FILLER_0_24_77
*693 FILLER_0_24_83
*694 FILLER_0_24_85
*695 FILLER_0_24_97
*696 FILLER_0_25_105
*697 FILLER_0_25_111
*698 FILLER_0_25_113
*699 FILLER_0_25_125
*700 FILLER_0_25_137
*701 FILLER_0_25_149
*702 FILLER_0_25_15
*703 FILLER_0_25_161
*704 FILLER_0_25_167
*705 FILLER_0_25_169
*706 FILLER_0_25_181
*707 FILLER_0_25_193
*708 FILLER_0_25_205
*709 FILLER_0_25_217
*710 FILLER_0_25_223
*711 FILLER_0_25_225
*712 FILLER_0_25_237
*713 FILLER_0_25_249
*714 FILLER_0_25_261
*715 FILLER_0_25_27
*716 FILLER_0_25_273
*717 FILLER_0_25_279
*718 FILLER_0_25_281
*719 FILLER_0_25_293
*720 FILLER_0_25_3
*721 FILLER_0_25_305
*722 FILLER_0_25_317
*723 FILLER_0_25_329
*724 FILLER_0_25_39
*725 FILLER_0_25_51
*726 FILLER_0_25_55
*727 FILLER_0_25_57
*728 FILLER_0_25_69
*729 FILLER_0_25_81
*730 FILLER_0_25_93
*731 FILLER_0_26_109
*732 FILLER_0_26_121
*733 FILLER_0_26_133
*734 FILLER_0_26_139
*735 FILLER_0_26_141
*736 FILLER_0_26_15
*737 FILLER_0_26_153
*738 FILLER_0_26_165
*739 FILLER_0_26_177
*740 FILLER_0_26_189
*741 FILLER_0_26_195
*742 FILLER_0_26_197
*743 FILLER_0_26_209
*744 FILLER_0_26_221
*745 FILLER_0_26_233
*746 FILLER_0_26_245
*747 FILLER_0_26_251
*748 FILLER_0_26_253
*749 FILLER_0_26_265
*750 FILLER_0_26_27
*751 FILLER_0_26_277
*752 FILLER_0_26_289
*753 FILLER_0_26_29
*754 FILLER_0_26_3
*755 FILLER_0_26_301
*756 FILLER_0_26_307
*757 FILLER_0_26_309
*758 FILLER_0_26_321
*759 FILLER_0_26_333
*760 FILLER_0_26_41
*761 FILLER_0_26_53
*762 FILLER_0_26_65
*763 FILLER_0_26_77
*764 FILLER_0_26_83
*765 FILLER_0_26_85
*766 FILLER_0_26_97
*767 FILLER_0_27_105
*768 FILLER_0_27_111
*769 FILLER_0_27_113
*770 FILLER_0_27_125
*771 FILLER_0_27_137
*772 FILLER_0_27_149
*773 FILLER_0_27_15
*774 FILLER_0_27_161
*775 FILLER_0_27_167
*776 FILLER_0_27_169
*777 FILLER_0_27_181
*778 FILLER_0_27_193
*779 FILLER_0_27_205
*780 FILLER_0_27_217
*781 FILLER_0_27_223
*782 FILLER_0_27_225
*783 FILLER_0_27_237
*784 FILLER_0_27_249
*785 FILLER_0_27_261
*786 FILLER_0_27_27
*787 FILLER_0_27_273
*788 FILLER_0_27_279
*789 FILLER_0_27_281
*790 FILLER_0_27_293
*791 FILLER_0_27_3
*792 FILLER_0_27_305
*793 FILLER_0_27_317
*794 FILLER_0_27_329
*795 FILLER_0_27_39
*796 FILLER_0_27_51
*797 FILLER_0_27_55
*798 FILLER_0_27_57
*799 FILLER_0_27_69
*800 FILLER_0_27_81
*801 FILLER_0_27_93
*802 FILLER_0_28_109
*803 FILLER_0_28_121
*804 FILLER_0_28_133
*805 FILLER_0_28_139
*806 FILLER_0_28_141
*807 FILLER_0_28_15
*808 FILLER_0_28_153
*809 FILLER_0_28_165
*810 FILLER_0_28_177
*811 FILLER_0_28_189
*812 FILLER_0_28_195
*813 FILLER_0_28_197
*814 FILLER_0_28_209
*815 FILLER_0_28_221
*816 FILLER_0_28_233
*817 FILLER_0_28_245
*818 FILLER_0_28_251
*819 FILLER_0_28_253
*820 FILLER_0_28_265
*821 FILLER_0_28_27
*822 FILLER_0_28_277
*823 FILLER_0_28_289
*824 FILLER_0_28_29
*825 FILLER_0_28_3
*826 FILLER_0_28_301
*827 FILLER_0_28_307
*828 FILLER_0_28_309
*829 FILLER_0_28_321
*830 FILLER_0_28_333
*831 FILLER_0_28_41
*832 FILLER_0_28_53
*833 FILLER_0_28_65
*834 FILLER_0_28_77
*835 FILLER_0_28_83
*836 FILLER_0_28_85
*837 FILLER_0_28_97
*838 FILLER_0_29_105
*839 FILLER_0_29_111
*840 FILLER_0_29_113
*841 FILLER_0_29_125
*842 FILLER_0_29_137
*843 FILLER_0_29_149
*844 FILLER_0_29_15
*845 FILLER_0_29_161
*846 FILLER_0_29_167
*847 FILLER_0_29_169
*848 FILLER_0_29_181
*849 FILLER_0_29_193
*850 FILLER_0_29_205
*851 FILLER_0_29_217
*852 FILLER_0_29_223
*853 FILLER_0_29_225
*854 FILLER_0_29_237
*855 FILLER_0_29_249
*856 FILLER_0_29_261
*857 FILLER_0_29_27
*858 FILLER_0_29_273
*859 FILLER_0_29_279
*860 FILLER_0_29_281
*861 FILLER_0_29_293
*862 FILLER_0_29_3
*863 FILLER_0_29_305
*864 FILLER_0_29_317
*865 FILLER_0_29_329
*866 FILLER_0_29_39
*867 FILLER_0_29_51
*868 FILLER_0_29_55
*869 FILLER_0_29_57
*870 FILLER_0_29_69
*871 FILLER_0_29_81
*872 FILLER_0_29_93
*873 FILLER_0_2_109
*874 FILLER_0_2_121
*875 FILLER_0_2_133
*876 FILLER_0_2_139
*877 FILLER_0_2_141
*878 FILLER_0_2_15
*879 FILLER_0_2_153
*880 FILLER_0_2_165
*881 FILLER_0_2_177
*882 FILLER_0_2_189
*883 FILLER_0_2_195
*884 FILLER_0_2_197
*885 FILLER_0_2_209
*886 FILLER_0_2_221
*887 FILLER_0_2_233
*888 FILLER_0_2_245
*889 FILLER_0_2_251
*890 FILLER_0_2_253
*891 FILLER_0_2_265
*892 FILLER_0_2_27
*893 FILLER_0_2_277
*894 FILLER_0_2_289
*895 FILLER_0_2_29
*896 FILLER_0_2_3
*897 FILLER_0_2_301
*898 FILLER_0_2_307
*899 FILLER_0_2_309
*900 FILLER_0_2_321
*901 FILLER_0_2_333
*902 FILLER_0_2_41
*903 FILLER_0_2_53
*904 FILLER_0_2_65
*905 FILLER_0_2_77
*906 FILLER_0_2_83
*907 FILLER_0_2_85
*908 FILLER_0_2_97
*909 FILLER_0_30_109
*910 FILLER_0_30_121
*911 FILLER_0_30_133
*912 FILLER_0_30_139
*913 FILLER_0_30_141
*914 FILLER_0_30_15
*915 FILLER_0_30_153
*916 FILLER_0_30_165
*917 FILLER_0_30_177
*918 FILLER_0_30_189
*919 FILLER_0_30_195
*920 FILLER_0_30_197
*921 FILLER_0_30_209
*922 FILLER_0_30_221
*923 FILLER_0_30_233
*924 FILLER_0_30_245
*925 FILLER_0_30_251
*926 FILLER_0_30_253
*927 FILLER_0_30_265
*928 FILLER_0_30_27
*929 FILLER_0_30_277
*930 FILLER_0_30_289
*931 FILLER_0_30_29
*932 FILLER_0_30_3
*933 FILLER_0_30_301
*934 FILLER_0_30_307
*935 FILLER_0_30_309
*936 FILLER_0_30_321
*937 FILLER_0_30_333
*938 FILLER_0_30_41
*939 FILLER_0_30_53
*940 FILLER_0_30_65
*941 FILLER_0_30_77
*942 FILLER_0_30_83
*943 FILLER_0_30_85
*944 FILLER_0_30_97
*945 FILLER_0_31_105
*946 FILLER_0_31_111
*947 FILLER_0_31_113
*948 FILLER_0_31_125
*949 FILLER_0_31_137
*950 FILLER_0_31_149
*951 FILLER_0_31_15
*952 FILLER_0_31_161
*953 FILLER_0_31_167
*954 FILLER_0_31_169
*955 FILLER_0_31_181
*956 FILLER_0_31_193
*957 FILLER_0_31_205
*958 FILLER_0_31_217
*959 FILLER_0_31_223
*960 FILLER_0_31_225
*961 FILLER_0_31_237
*962 FILLER_0_31_249
*963 FILLER_0_31_261
*964 FILLER_0_31_27
*965 FILLER_0_31_273
*966 FILLER_0_31_279
*967 FILLER_0_31_281
*968 FILLER_0_31_293
*969 FILLER_0_31_3
*970 FILLER_0_31_305
*971 FILLER_0_31_317
*972 FILLER_0_31_329
*973 FILLER_0_31_39
*974 FILLER_0_31_51
*975 FILLER_0_31_55
*976 FILLER_0_31_57
*977 FILLER_0_31_69
*978 FILLER_0_31_81
*979 FILLER_0_31_93
*980 FILLER_0_32_109
*981 FILLER_0_32_121
*982 FILLER_0_32_133
*983 FILLER_0_32_139
*984 FILLER_0_32_141
*985 FILLER_0_32_15
*986 FILLER_0_32_153
*987 FILLER_0_32_165
*988 FILLER_0_32_177
*989 FILLER_0_32_189
*990 FILLER_0_32_195
*991 FILLER_0_32_197
*992 FILLER_0_32_209
*993 FILLER_0_32_221
*994 FILLER_0_32_233
*995 FILLER_0_32_245
*996 FILLER_0_32_251
*997 FILLER_0_32_253
*998 FILLER_0_32_265
*999 FILLER_0_32_27
*1000 FILLER_0_32_277
*1001 FILLER_0_32_289
*1002 FILLER_0_32_29
*1003 FILLER_0_32_3
*1004 FILLER_0_32_301
*1005 FILLER_0_32_307
*1006 FILLER_0_32_309
*1007 FILLER_0_32_321
*1008 FILLER_0_32_333
*1009 FILLER_0_32_41
*1010 FILLER_0_32_53
*1011 FILLER_0_32_65
*1012 FILLER_0_32_77
*1013 FILLER_0_32_83
*1014 FILLER_0_32_85
*1015 FILLER_0_32_97
*1016 FILLER_0_33_105
*1017 FILLER_0_33_111
*1018 FILLER_0_33_113
*1019 FILLER_0_33_125
*1020 FILLER_0_33_137
*1021 FILLER_0_33_149
*1022 FILLER_0_33_15
*1023 FILLER_0_33_161
*1024 FILLER_0_33_167
*1025 FILLER_0_33_169
*1026 FILLER_0_33_181
*1027 FILLER_0_33_193
*1028 FILLER_0_33_205
*1029 FILLER_0_33_217
*1030 FILLER_0_33_223
*1031 FILLER_0_33_225
*1032 FILLER_0_33_237
*1033 FILLER_0_33_249
*1034 FILLER_0_33_261
*1035 FILLER_0_33_27
*1036 FILLER_0_33_273
*1037 FILLER_0_33_279
*1038 FILLER_0_33_281
*1039 FILLER_0_33_293
*1040 FILLER_0_33_3
*1041 FILLER_0_33_305
*1042 FILLER_0_33_317
*1043 FILLER_0_33_329
*1044 FILLER_0_33_39
*1045 FILLER_0_33_51
*1046 FILLER_0_33_55
*1047 FILLER_0_33_57
*1048 FILLER_0_33_69
*1049 FILLER_0_33_81
*1050 FILLER_0_33_93
*1051 FILLER_0_34_109
*1052 FILLER_0_34_121
*1053 FILLER_0_34_133
*1054 FILLER_0_34_139
*1055 FILLER_0_34_141
*1056 FILLER_0_34_15
*1057 FILLER_0_34_153
*1058 FILLER_0_34_165
*1059 FILLER_0_34_177
*1060 FILLER_0_34_189
*1061 FILLER_0_34_195
*1062 FILLER_0_34_197
*1063 FILLER_0_34_209
*1064 FILLER_0_34_221
*1065 FILLER_0_34_233
*1066 FILLER_0_34_245
*1067 FILLER_0_34_251
*1068 FILLER_0_34_253
*1069 FILLER_0_34_265
*1070 FILLER_0_34_27
*1071 FILLER_0_34_277
*1072 FILLER_0_34_289
*1073 FILLER_0_34_29
*1074 FILLER_0_34_3
*1075 FILLER_0_34_301
*1076 FILLER_0_34_307
*1077 FILLER_0_34_309
*1078 FILLER_0_34_321
*1079 FILLER_0_34_333
*1080 FILLER_0_34_41
*1081 FILLER_0_34_53
*1082 FILLER_0_34_65
*1083 FILLER_0_34_77
*1084 FILLER_0_34_83
*1085 FILLER_0_34_85
*1086 FILLER_0_34_97
*1087 FILLER_0_35_105
*1088 FILLER_0_35_111
*1089 FILLER_0_35_113
*1090 FILLER_0_35_125
*1091 FILLER_0_35_137
*1092 FILLER_0_35_149
*1093 FILLER_0_35_15
*1094 FILLER_0_35_161
*1095 FILLER_0_35_167
*1096 FILLER_0_35_169
*1097 FILLER_0_35_181
*1098 FILLER_0_35_187
*1099 FILLER_0_35_199
*1100 FILLER_0_35_204
*1101 FILLER_0_35_208
*1102 FILLER_0_35_217
*1103 FILLER_0_35_223
*1104 FILLER_0_35_228
*1105 FILLER_0_35_240
*1106 FILLER_0_35_252
*1107 FILLER_0_35_264
*1108 FILLER_0_35_27
*1109 FILLER_0_35_276
*1110 FILLER_0_35_281
*1111 FILLER_0_35_293
*1112 FILLER_0_35_3
*1113 FILLER_0_35_305
*1114 FILLER_0_35_317
*1115 FILLER_0_35_329
*1116 FILLER_0_35_39
*1117 FILLER_0_35_51
*1118 FILLER_0_35_55
*1119 FILLER_0_35_57
*1120 FILLER_0_35_69
*1121 FILLER_0_35_81
*1122 FILLER_0_35_93
*1123 FILLER_0_36_109
*1124 FILLER_0_36_121
*1125 FILLER_0_36_133
*1126 FILLER_0_36_139
*1127 FILLER_0_36_141
*1128 FILLER_0_36_15
*1129 FILLER_0_36_153
*1130 FILLER_0_36_165
*1131 FILLER_0_36_202
*1132 FILLER_0_36_224
*1133 FILLER_0_36_238
*1134 FILLER_0_36_244
*1135 FILLER_0_36_248
*1136 FILLER_0_36_253
*1137 FILLER_0_36_260
*1138 FILLER_0_36_264
*1139 FILLER_0_36_27
*1140 FILLER_0_36_271
*1141 FILLER_0_36_283
*1142 FILLER_0_36_287
*1143 FILLER_0_36_29
*1144 FILLER_0_36_293
*1145 FILLER_0_36_3
*1146 FILLER_0_36_305
*1147 FILLER_0_36_309
*1148 FILLER_0_36_321
*1149 FILLER_0_36_333
*1150 FILLER_0_36_41
*1151 FILLER_0_36_53
*1152 FILLER_0_36_65
*1153 FILLER_0_36_77
*1154 FILLER_0_36_83
*1155 FILLER_0_36_85
*1156 FILLER_0_36_97
*1157 FILLER_0_37_105
*1158 FILLER_0_37_111
*1159 FILLER_0_37_113
*1160 FILLER_0_37_125
*1161 FILLER_0_37_137
*1162 FILLER_0_37_149
*1163 FILLER_0_37_15
*1164 FILLER_0_37_161
*1165 FILLER_0_37_167
*1166 FILLER_0_37_202
*1167 FILLER_0_37_225
*1168 FILLER_0_37_262
*1169 FILLER_0_37_27
*1170 FILLER_0_37_279
*1171 FILLER_0_37_288
*1172 FILLER_0_37_3
*1173 FILLER_0_37_306
*1174 FILLER_0_37_318
*1175 FILLER_0_37_330
*1176 FILLER_0_37_334
*1177 FILLER_0_37_39
*1178 FILLER_0_37_51
*1179 FILLER_0_37_55
*1180 FILLER_0_37_57
*1181 FILLER_0_37_69
*1182 FILLER_0_37_81
*1183 FILLER_0_37_93
*1184 FILLER_0_38_10
*1185 FILLER_0_38_102
*1186 FILLER_0_38_106
*1187 FILLER_0_38_110
*1188 FILLER_0_38_113
*1189 FILLER_0_38_118
*1190 FILLER_0_38_122
*1191 FILLER_0_38_126
*1192 FILLER_0_38_130
*1193 FILLER_0_38_134
*1194 FILLER_0_38_14
*1195 FILLER_0_38_145
*1196 FILLER_0_38_149
*1197 FILLER_0_38_154
*1198 FILLER_0_38_161
*1199 FILLER_0_38_167
*1200 FILLER_0_38_169
*1201 FILLER_0_38_174
*1202 FILLER_0_38_18
*1203 FILLER_0_38_197
*1204 FILLER_0_38_204
*1205 FILLER_0_38_22
*1206 FILLER_0_38_220
*1207 FILLER_0_38_225
*1208 FILLER_0_38_231
*1209 FILLER_0_38_256
*1210 FILLER_0_38_262
*1211 FILLER_0_38_266
*1212 FILLER_0_38_270
*1213 FILLER_0_38_274
*1214 FILLER_0_38_278
*1215 FILLER_0_38_281
*1216 FILLER_0_38_286
*1217 FILLER_0_38_306
*1218 FILLER_0_38_312
*1219 FILLER_0_38_318
*1220 FILLER_0_38_32
*1221 FILLER_0_38_322
*1222 FILLER_0_38_326
*1223 FILLER_0_38_334
*1224 FILLER_0_38_38
*1225 FILLER_0_38_42
*1226 FILLER_0_38_46
*1227 FILLER_0_38_50
*1228 FILLER_0_38_54
*1229 FILLER_0_38_57
*1230 FILLER_0_38_6
*1231 FILLER_0_38_62
*1232 FILLER_0_38_66
*1233 FILLER_0_38_70
*1234 FILLER_0_38_74
*1235 FILLER_0_38_78
*1236 FILLER_0_38_88
*1237 FILLER_0_38_94
*1238 FILLER_0_38_98
*1239 FILLER_0_3_105
*1240 FILLER_0_3_111
*1241 FILLER_0_3_113
*1242 FILLER_0_3_125
*1243 FILLER_0_3_137
*1244 FILLER_0_3_149
*1245 FILLER_0_3_15
*1246 FILLER_0_3_161
*1247 FILLER_0_3_167
*1248 FILLER_0_3_169
*1249 FILLER_0_3_181
*1250 FILLER_0_3_193
*1251 FILLER_0_3_205
*1252 FILLER_0_3_217
*1253 FILLER_0_3_223
*1254 FILLER_0_3_225
*1255 FILLER_0_3_237
*1256 FILLER_0_3_249
*1257 FILLER_0_3_261
*1258 FILLER_0_3_27
*1259 FILLER_0_3_273
*1260 FILLER_0_3_279
*1261 FILLER_0_3_281
*1262 FILLER_0_3_293
*1263 FILLER_0_3_3
*1264 FILLER_0_3_305
*1265 FILLER_0_3_317
*1266 FILLER_0_3_329
*1267 FILLER_0_3_39
*1268 FILLER_0_3_51
*1269 FILLER_0_3_55
*1270 FILLER_0_3_57
*1271 FILLER_0_3_69
*1272 FILLER_0_3_81
*1273 FILLER_0_3_93
*1274 FILLER_0_4_109
*1275 FILLER_0_4_121
*1276 FILLER_0_4_133
*1277 FILLER_0_4_139
*1278 FILLER_0_4_141
*1279 FILLER_0_4_15
*1280 FILLER_0_4_153
*1281 FILLER_0_4_165
*1282 FILLER_0_4_177
*1283 FILLER_0_4_189
*1284 FILLER_0_4_195
*1285 FILLER_0_4_197
*1286 FILLER_0_4_209
*1287 FILLER_0_4_221
*1288 FILLER_0_4_233
*1289 FILLER_0_4_245
*1290 FILLER_0_4_251
*1291 FILLER_0_4_253
*1292 FILLER_0_4_265
*1293 FILLER_0_4_27
*1294 FILLER_0_4_277
*1295 FILLER_0_4_289
*1296 FILLER_0_4_29
*1297 FILLER_0_4_3
*1298 FILLER_0_4_301
*1299 FILLER_0_4_307
*1300 FILLER_0_4_309
*1301 FILLER_0_4_321
*1302 FILLER_0_4_333
*1303 FILLER_0_4_41
*1304 FILLER_0_4_53
*1305 FILLER_0_4_65
*1306 FILLER_0_4_77
*1307 FILLER_0_4_83
*1308 FILLER_0_4_85
*1309 FILLER_0_4_97
*1310 FILLER_0_5_105
*1311 FILLER_0_5_111
*1312 FILLER_0_5_113
*1313 FILLER_0_5_125
*1314 FILLER_0_5_137
*1315 FILLER_0_5_149
*1316 FILLER_0_5_15
*1317 FILLER_0_5_161
*1318 FILLER_0_5_167
*1319 FILLER_0_5_169
*1320 FILLER_0_5_181
*1321 FILLER_0_5_193
*1322 FILLER_0_5_205
*1323 FILLER_0_5_217
*1324 FILLER_0_5_223
*1325 FILLER_0_5_225
*1326 FILLER_0_5_237
*1327 FILLER_0_5_249
*1328 FILLER_0_5_261
*1329 FILLER_0_5_27
*1330 FILLER_0_5_273
*1331 FILLER_0_5_279
*1332 FILLER_0_5_281
*1333 FILLER_0_5_293
*1334 FILLER_0_5_3
*1335 FILLER_0_5_305
*1336 FILLER_0_5_317
*1337 FILLER_0_5_329
*1338 FILLER_0_5_39
*1339 FILLER_0_5_51
*1340 FILLER_0_5_55
*1341 FILLER_0_5_57
*1342 FILLER_0_5_69
*1343 FILLER_0_5_81
*1344 FILLER_0_5_93
*1345 FILLER_0_6_109
*1346 FILLER_0_6_121
*1347 FILLER_0_6_133
*1348 FILLER_0_6_139
*1349 FILLER_0_6_141
*1350 FILLER_0_6_15
*1351 FILLER_0_6_153
*1352 FILLER_0_6_165
*1353 FILLER_0_6_177
*1354 FILLER_0_6_189
*1355 FILLER_0_6_195
*1356 FILLER_0_6_197
*1357 FILLER_0_6_209
*1358 FILLER_0_6_221
*1359 FILLER_0_6_233
*1360 FILLER_0_6_245
*1361 FILLER_0_6_251
*1362 FILLER_0_6_253
*1363 FILLER_0_6_265
*1364 FILLER_0_6_27
*1365 FILLER_0_6_277
*1366 FILLER_0_6_289
*1367 FILLER_0_6_29
*1368 FILLER_0_6_3
*1369 FILLER_0_6_301
*1370 FILLER_0_6_307
*1371 FILLER_0_6_309
*1372 FILLER_0_6_321
*1373 FILLER_0_6_333
*1374 FILLER_0_6_41
*1375 FILLER_0_6_53
*1376 FILLER_0_6_65
*1377 FILLER_0_6_77
*1378 FILLER_0_6_83
*1379 FILLER_0_6_85
*1380 FILLER_0_6_97
*1381 FILLER_0_7_105
*1382 FILLER_0_7_111
*1383 FILLER_0_7_113
*1384 FILLER_0_7_125
*1385 FILLER_0_7_137
*1386 FILLER_0_7_149
*1387 FILLER_0_7_15
*1388 FILLER_0_7_161
*1389 FILLER_0_7_167
*1390 FILLER_0_7_169
*1391 FILLER_0_7_181
*1392 FILLER_0_7_193
*1393 FILLER_0_7_205
*1394 FILLER_0_7_217
*1395 FILLER_0_7_223
*1396 FILLER_0_7_225
*1397 FILLER_0_7_237
*1398 FILLER_0_7_249
*1399 FILLER_0_7_261
*1400 FILLER_0_7_27
*1401 FILLER_0_7_273
*1402 FILLER_0_7_279
*1403 FILLER_0_7_281
*1404 FILLER_0_7_293
*1405 FILLER_0_7_3
*1406 FILLER_0_7_305
*1407 FILLER_0_7_317
*1408 FILLER_0_7_329
*1409 FILLER_0_7_39
*1410 FILLER_0_7_51
*1411 FILLER_0_7_55
*1412 FILLER_0_7_57
*1413 FILLER_0_7_69
*1414 FILLER_0_7_81
*1415 FILLER_0_7_93
*1416 FILLER_0_8_109
*1417 FILLER_0_8_121
*1418 FILLER_0_8_133
*1419 FILLER_0_8_139
*1420 FILLER_0_8_141
*1421 FILLER_0_8_15
*1422 FILLER_0_8_153
*1423 FILLER_0_8_165
*1424 FILLER_0_8_177
*1425 FILLER_0_8_189
*1426 FILLER_0_8_195
*1427 FILLER_0_8_197
*1428 FILLER_0_8_209
*1429 FILLER_0_8_221
*1430 FILLER_0_8_233
*1431 FILLER_0_8_245
*1432 FILLER_0_8_251
*1433 FILLER_0_8_253
*1434 FILLER_0_8_265
*1435 FILLER_0_8_27
*1436 FILLER_0_8_277
*1437 FILLER_0_8_289
*1438 FILLER_0_8_29
*1439 FILLER_0_8_3
*1440 FILLER_0_8_301
*1441 FILLER_0_8_307
*1442 FILLER_0_8_309
*1443 FILLER_0_8_321
*1444 FILLER_0_8_333
*1445 FILLER_0_8_41
*1446 FILLER_0_8_53
*1447 FILLER_0_8_65
*1448 FILLER_0_8_77
*1449 FILLER_0_8_83
*1450 FILLER_0_8_85
*1451 FILLER_0_8_97
*1452 FILLER_0_9_105
*1453 FILLER_0_9_111
*1454 FILLER_0_9_113
*1455 FILLER_0_9_125
*1456 FILLER_0_9_137
*1457 FILLER_0_9_149
*1458 FILLER_0_9_15
*1459 FILLER_0_9_161
*1460 FILLER_0_9_167
*1461 FILLER_0_9_169
*1462 FILLER_0_9_181
*1463 FILLER_0_9_193
*1464 FILLER_0_9_205
*1465 FILLER_0_9_217
*1466 FILLER_0_9_223
*1467 FILLER_0_9_225
*1468 FILLER_0_9_237
*1469 FILLER_0_9_249