*SPEF "ieee 1481-1999"
*DESIGN "tt_um_wokwi_395054823569451009"
*DATE "13:43:13 Saturday April 13, 2024"
*VENDOR "The OpenROAD Project"
*PROGRAM "OpenROAD"
*VERSION "0889970d1790a2617e69f253221b8bd7626e51dc"
*DESIGN_FLOW "NAME_SCOPE LOCAL" "PIN_CAP NONE"
*DIVIDER /
*DELIMITER :
*BUS_DELIMITER []
*T_UNIT 1 NS
*C_UNIT 1 PF
*R_UNIT 1 OHM
*L_UNIT 1 HENRY

*NAME_MAP
*3 clk
*4 ena
*5 rst_n
*6 ui_in[0]
*7 ui_in[1]
*8 ui_in[2]
*9 ui_in[3]
*10 ui_in[4]
*11 ui_in[5]
*12 ui_in[6]
*13 ui_in[7]
*14 uio_in[0]
*15 uio_in[1]
*16 uio_in[2]
*17 uio_in[3]
*18 uio_in[4]
*19 uio_in[5]
*20 uio_in[6]
*21 uio_in[7]
*22 net12
*23 net13
*24 net14
*25 net15
*26 net16
*27 net17
*28 net18
*29 net19
*30 net20
*31 net1
*32 net2
*33 net3
*34 net4
*35 net5
*36 net6
*37 net7
*38 net8
*39 net9
*40 net10
*41 net11
*42 uo_out[4]
*43 uo_out[5]
*44 uo_out[6]
*45 uo_out[7]
*46 FILLER_0_0_109
*47 FILLER_0_0_113
*48 FILLER_0_0_125
*49 FILLER_0_0_137
*50 FILLER_0_0_141
*51 FILLER_0_0_15
*52 FILLER_0_0_153
*53 FILLER_0_0_165
*54 FILLER_0_0_169
*55 FILLER_0_0_181
*56 FILLER_0_0_193
*57 FILLER_0_0_197
*58 FILLER_0_0_209
*59 FILLER_0_0_221
*60 FILLER_0_0_225
*61 FILLER_0_0_237
*62 FILLER_0_0_249
*63 FILLER_0_0_253
*64 FILLER_0_0_265
*65 FILLER_0_0_27
*66 FILLER_0_0_277
*67 FILLER_0_0_281
*68 FILLER_0_0_29
*69 FILLER_0_0_293
*70 FILLER_0_0_3
*71 FILLER_0_0_305
*72 FILLER_0_0_309
*73 FILLER_0_0_321
*74 FILLER_0_0_333
*75 FILLER_0_0_41
*76 FILLER_0_0_53
*77 FILLER_0_0_57
*78 FILLER_0_0_69
*79 FILLER_0_0_81
*80 FILLER_0_0_85
*81 FILLER_0_0_97
*82 FILLER_0_10_109
*83 FILLER_0_10_121
*84 FILLER_0_10_133
*85 FILLER_0_10_139
*86 FILLER_0_10_141
*87 FILLER_0_10_15
*88 FILLER_0_10_153
*89 FILLER_0_10_165
*90 FILLER_0_10_177
*91 FILLER_0_10_189
*92 FILLER_0_10_195
*93 FILLER_0_10_197
*94 FILLER_0_10_209
*95 FILLER_0_10_221
*96 FILLER_0_10_233
*97 FILLER_0_10_245
*98 FILLER_0_10_251
*99 FILLER_0_10_253
*100 FILLER_0_10_265
*101 FILLER_0_10_27
*102 FILLER_0_10_277
*103 FILLER_0_10_289
*104 FILLER_0_10_29
*105 FILLER_0_10_3
*106 FILLER_0_10_301
*107 FILLER_0_10_307
*108 FILLER_0_10_309
*109 FILLER_0_10_321
*110 FILLER_0_10_333
*111 FILLER_0_10_41
*112 FILLER_0_10_53
*113 FILLER_0_10_65
*114 FILLER_0_10_77
*115 FILLER_0_10_83
*116 FILLER_0_10_85
*117 FILLER_0_10_97
*118 FILLER_0_11_105
*119 FILLER_0_11_111
*120 FILLER_0_11_113
*121 FILLER_0_11_125
*122 FILLER_0_11_137
*123 FILLER_0_11_149
*124 FILLER_0_11_15
*125 FILLER_0_11_161
*126 FILLER_0_11_167
*127 FILLER_0_11_169
*128 FILLER_0_11_181
*129 FILLER_0_11_193
*130 FILLER_0_11_205
*131 FILLER_0_11_217
*132 FILLER_0_11_223
*133 FILLER_0_11_225
*134 FILLER_0_11_237
*135 FILLER_0_11_249
*136 FILLER_0_11_261
*137 FILLER_0_11_27
*138 FILLER_0_11_273
*139 FILLER_0_11_279
*140 FILLER_0_11_281
*141 FILLER_0_11_293
*142 FILLER_0_11_3
*143 FILLER_0_11_305
*144 FILLER_0_11_317
*145 FILLER_0_11_329
*146 FILLER_0_11_39
*147 FILLER_0_11_51
*148 FILLER_0_11_55
*149 FILLER_0_11_57
*150 FILLER_0_11_69
*151 FILLER_0_11_81
*152 FILLER_0_11_93
*153 FILLER_0_12_109
*154 FILLER_0_12_121
*155 FILLER_0_12_133
*156 FILLER_0_12_139
*157 FILLER_0_12_141
*158 FILLER_0_12_15
*159 FILLER_0_12_153
*160 FILLER_0_12_165
*161 FILLER_0_12_177
*162 FILLER_0_12_189
*163 FILLER_0_12_195
*164 FILLER_0_12_197
*165 FILLER_0_12_209
*166 FILLER_0_12_221
*167 FILLER_0_12_233
*168 FILLER_0_12_245
*169 FILLER_0_12_251
*170 FILLER_0_12_253
*171 FILLER_0_12_265
*172 FILLER_0_12_27
*173 FILLER_0_12_277
*174 FILLER_0_12_289
*175 FILLER_0_12_29
*176 FILLER_0_12_3
*177 FILLER_0_12_301
*178 FILLER_0_12_307
*179 FILLER_0_12_309
*180 FILLER_0_12_321
*181 FILLER_0_12_333
*182 FILLER_0_12_41
*183 FILLER_0_12_53
*184 FILLER_0_12_65
*185 FILLER_0_12_77
*186 FILLER_0_12_83
*187 FILLER_0_12_85
*188 FILLER_0_12_97
*189 FILLER_0_13_105
*190 FILLER_0_13_111
*191 FILLER_0_13_113
*192 FILLER_0_13_125
*193 FILLER_0_13_137
*194 FILLER_0_13_149
*195 FILLER_0_13_15
*196 FILLER_0_13_161
*197 FILLER_0_13_167
*198 FILLER_0_13_169
*199 FILLER_0_13_181
*200 FILLER_0_13_193
*201 FILLER_0_13_205
*202 FILLER_0_13_217
*203 FILLER_0_13_223
*204 FILLER_0_13_225
*205 FILLER_0_13_237
*206 FILLER_0_13_249
*207 FILLER_0_13_261
*208 FILLER_0_13_27
*209 FILLER_0_13_273
*210 FILLER_0_13_279
*211 FILLER_0_13_281
*212 FILLER_0_13_293
*213 FILLER_0_13_3
*214 FILLER_0_13_305
*215 FILLER_0_13_317
*216 FILLER_0_13_329
*217 FILLER_0_13_39
*218 FILLER_0_13_51
*219 FILLER_0_13_55
*220 FILLER_0_13_57
*221 FILLER_0_13_69
*222 FILLER_0_13_81
*223 FILLER_0_13_93
*224 FILLER_0_14_109
*225 FILLER_0_14_121
*226 FILLER_0_14_133
*227 FILLER_0_14_139
*228 FILLER_0_14_141
*229 FILLER_0_14_15
*230 FILLER_0_14_153
*231 FILLER_0_14_165
*232 FILLER_0_14_177
*233 FILLER_0_14_189
*234 FILLER_0_14_195
*235 FILLER_0_14_197
*236 FILLER_0_14_209
*237 FILLER_0_14_221
*238 FILLER_0_14_233
*239 FILLER_0_14_245
*240 FILLER_0_14_251
*241 FILLER_0_14_253
*242 FILLER_0_14_265
*243 FILLER_0_14_27
*244 FILLER_0_14_277
*245 FILLER_0_14_289
*246 FILLER_0_14_29
*247 FILLER_0_14_3
*248 FILLER_0_14_301
*249 FILLER_0_14_307
*250 FILLER_0_14_309
*251 FILLER_0_14_321
*252 FILLER_0_14_333
*253 FILLER_0_14_41
*254 FILLER_0_14_53
*255 FILLER_0_14_65
*256 FILLER_0_14_77
*257 FILLER_0_14_83
*258 FILLER_0_14_85
*259 FILLER_0_14_97
*260 FILLER_0_15_105
*261 FILLER_0_15_111
*262 FILLER_0_15_113
*263 FILLER_0_15_125
*264 FILLER_0_15_137
*265 FILLER_0_15_149
*266 FILLER_0_15_15
*267 FILLER_0_15_161
*268 FILLER_0_15_167
*269 FILLER_0_15_169
*270 FILLER_0_15_181
*271 FILLER_0_15_193
*272 FILLER_0_15_205
*273 FILLER_0_15_217
*274 FILLER_0_15_223
*275 FILLER_0_15_225
*276 FILLER_0_15_237
*277 FILLER_0_15_249
*278 FILLER_0_15_261
*279 FILLER_0_15_27
*280 FILLER_0_15_273
*281 FILLER_0_15_279
*282 FILLER_0_15_281
*283 FILLER_0_15_293
*284 FILLER_0_15_3
*285 FILLER_0_15_305
*286 FILLER_0_15_317
*287 FILLER_0_15_329
*288 FILLER_0_15_39
*289 FILLER_0_15_51
*290 FILLER_0_15_55
*291 FILLER_0_15_57
*292 FILLER_0_15_69
*293 FILLER_0_15_81
*294 FILLER_0_15_93
*295 FILLER_0_16_109
*296 FILLER_0_16_121
*297 FILLER_0_16_133
*298 FILLER_0_16_139
*299 FILLER_0_16_141
*300 FILLER_0_16_15
*301 FILLER_0_16_153
*302 FILLER_0_16_165
*303 FILLER_0_16_177
*304 FILLER_0_16_189
*305 FILLER_0_16_195
*306 FILLER_0_16_197
*307 FILLER_0_16_209
*308 FILLER_0_16_221
*309 FILLER_0_16_233
*310 FILLER_0_16_245
*311 FILLER_0_16_251
*312 FILLER_0_16_253
*313 FILLER_0_16_265
*314 FILLER_0_16_27
*315 FILLER_0_16_277
*316 FILLER_0_16_289
*317 FILLER_0_16_29
*318 FILLER_0_16_3
*319 FILLER_0_16_301
*320 FILLER_0_16_307
*321 FILLER_0_16_309
*322 FILLER_0_16_321
*323 FILLER_0_16_333
*324 FILLER_0_16_41
*325 FILLER_0_16_53
*326 FILLER_0_16_65
*327 FILLER_0_16_77
*328 FILLER_0_16_83
*329 FILLER_0_16_85
*330 FILLER_0_16_97
*331 FILLER_0_17_105
*332 FILLER_0_17_111
*333 FILLER_0_17_113
*334 FILLER_0_17_125
*335 FILLER_0_17_137
*336 FILLER_0_17_149
*337 FILLER_0_17_15
*338 FILLER_0_17_161
*339 FILLER_0_17_167
*340 FILLER_0_17_169
*341 FILLER_0_17_181
*342 FILLER_0_17_193
*343 FILLER_0_17_205
*344 FILLER_0_17_217
*345 FILLER_0_17_223
*346 FILLER_0_17_225
*347 FILLER_0_17_237
*348 FILLER_0_17_249
*349 FILLER_0_17_261
*350 FILLER_0_17_27
*351 FILLER_0_17_273
*352 FILLER_0_17_279
*353 FILLER_0_17_281
*354 FILLER_0_17_293
*355 FILLER_0_17_3
*356 FILLER_0_17_305
*357 FILLER_0_17_317
*358 FILLER_0_17_329
*359 FILLER_0_17_39
*360 FILLER_0_17_51
*361 FILLER_0_17_55
*362 FILLER_0_17_57
*363 FILLER_0_17_69
*364 FILLER_0_17_81
*365 FILLER_0_17_93
*366 FILLER_0_18_109
*367 FILLER_0_18_121
*368 FILLER_0_18_133
*369 FILLER_0_18_139
*370 FILLER_0_18_141
*371 FILLER_0_18_15
*372 FILLER_0_18_153
*373 FILLER_0_18_165
*374 FILLER_0_18_177
*375 FILLER_0_18_189
*376 FILLER_0_18_195
*377 FILLER_0_18_197
*378 FILLER_0_18_209
*379 FILLER_0_18_221
*380 FILLER_0_18_233
*381 FILLER_0_18_245
*382 FILLER_0_18_251
*383 FILLER_0_18_253
*384 FILLER_0_18_265
*385 FILLER_0_18_27
*386 FILLER_0_18_277
*387 FILLER_0_18_289
*388 FILLER_0_18_29
*389 FILLER_0_18_3
*390 FILLER_0_18_301
*391 FILLER_0_18_307
*392 FILLER_0_18_309
*393 FILLER_0_18_321
*394 FILLER_0_18_333
*395 FILLER_0_18_41
*396 FILLER_0_18_53
*397 FILLER_0_18_65
*398 FILLER_0_18_77
*399 FILLER_0_18_83
*400 FILLER_0_18_85
*401 FILLER_0_18_97
*402 FILLER_0_19_105
*403 FILLER_0_19_111
*404 FILLER_0_19_113
*405 FILLER_0_19_125
*406 FILLER_0_19_137
*407 FILLER_0_19_149
*408 FILLER_0_19_15
*409 FILLER_0_19_161
*410 FILLER_0_19_167
*411 FILLER_0_19_169
*412 FILLER_0_19_181
*413 FILLER_0_19_193
*414 FILLER_0_19_205
*415 FILLER_0_19_217
*416 FILLER_0_19_223
*417 FILLER_0_19_225
*418 FILLER_0_19_237
*419 FILLER_0_19_249
*420 FILLER_0_19_261
*421 FILLER_0_19_27
*422 FILLER_0_19_273
*423 FILLER_0_19_279
*424 FILLER_0_19_281
*425 FILLER_0_19_293
*426 FILLER_0_19_3
*427 FILLER_0_19_305
*428 FILLER_0_19_317
*429 FILLER_0_19_329
*430 FILLER_0_19_39
*431 FILLER_0_19_51
*432 FILLER_0_19_55
*433 FILLER_0_19_57
*434 FILLER_0_19_69
*435 FILLER_0_19_81
*436 FILLER_0_19_93
*437 FILLER_0_1_105
*438 FILLER_0_1_111
*439 FILLER_0_1_113
*440 FILLER_0_1_125
*441 FILLER_0_1_137
*442 FILLER_0_1_149
*443 FILLER_0_1_15
*444 FILLER_0_1_161
*445 FILLER_0_1_167
*446 FILLER_0_1_169
*447 FILLER_0_1_181
*448 FILLER_0_1_193
*449 FILLER_0_1_205
*450 FILLER_0_1_217
*451 FILLER_0_1_223
*452 FILLER_0_1_225
*453 FILLER_0_1_237
*454 FILLER_0_1_249
*455 FILLER_0_1_261
*456 FILLER_0_1_27
*457 FILLER_0_1_273
*458 FILLER_0_1_279
*459 FILLER_0_1_281
*460 FILLER_0_1_293
*461 FILLER_0_1_3
*462 FILLER_0_1_305
*463 FILLER_0_1_317
*464 FILLER_0_1_329
*465 FILLER_0_1_39
*466 FILLER_0_1_51
*467 FILLER_0_1_55
*468 FILLER_0_1_57
*469 FILLER_0_1_69
*470 FILLER_0_1_81
*471 FILLER_0_1_93
*472 FILLER_0_20_109
*473 FILLER_0_20_121
*474 FILLER_0_20_133
*475 FILLER_0_20_139
*476 FILLER_0_20_141
*477 FILLER_0_20_15
*478 FILLER_0_20_153
*479 FILLER_0_20_165
*480 FILLER_0_20_177
*481 FILLER_0_20_189
*482 FILLER_0_20_195
*483 FILLER_0_20_197
*484 FILLER_0_20_209
*485 FILLER_0_20_221
*486 FILLER_0_20_233
*487 FILLER_0_20_245
*488 FILLER_0_20_251
*489 FILLER_0_20_253
*490 FILLER_0_20_265
*491 FILLER_0_20_27
*492 FILLER_0_20_277
*493 FILLER_0_20_289
*494 FILLER_0_20_29
*495 FILLER_0_20_3
*496 FILLER_0_20_301
*497 FILLER_0_20_307
*498 FILLER_0_20_309
*499 FILLER_0_20_321
*500 FILLER_0_20_333
*501 FILLER_0_20_41
*502 FILLER_0_20_53
*503 FILLER_0_20_65
*504 FILLER_0_20_77
*505 FILLER_0_20_83
*506 FILLER_0_20_85
*507 FILLER_0_20_97
*508 FILLER_0_21_105
*509 FILLER_0_21_111
*510 FILLER_0_21_113
*511 FILLER_0_21_125
*512 FILLER_0_21_137
*513 FILLER_0_21_149
*514 FILLER_0_21_15
*515 FILLER_0_21_161
*516 FILLER_0_21_167
*517 FILLER_0_21_169
*518 FILLER_0_21_181
*519 FILLER_0_21_193
*520 FILLER_0_21_205
*521 FILLER_0_21_217
*522 FILLER_0_21_223
*523 FILLER_0_21_225
*524 FILLER_0_21_237
*525 FILLER_0_21_249
*526 FILLER_0_21_261
*527 FILLER_0_21_27
*528 FILLER_0_21_273
*529 FILLER_0_21_279
*530 FILLER_0_21_281
*531 FILLER_0_21_293
*532 FILLER_0_21_3
*533 FILLER_0_21_305
*534 FILLER_0_21_317
*535 FILLER_0_21_329
*536 FILLER_0_21_39
*537 FILLER_0_21_51
*538 FILLER_0_21_55
*539 FILLER_0_21_57
*540 FILLER_0_21_69
*541 FILLER_0_21_81
*542 FILLER_0_21_93
*543 FILLER_0_22_109
*544 FILLER_0_22_121
*545 FILLER_0_22_133
*546 FILLER_0_22_139
*547 FILLER_0_22_141
*548 FILLER_0_22_15
*549 FILLER_0_22_153
*550 FILLER_0_22_165
*551 FILLER_0_22_177
*552 FILLER_0_22_189
*553 FILLER_0_22_195
*554 FILLER_0_22_197
*555 FILLER_0_22_209
*556 FILLER_0_22_221
*557 FILLER_0_22_233
*558 FILLER_0_22_245
*559 FILLER_0_22_251
*560 FILLER_0_22_253
*561 FILLER_0_22_265
*562 FILLER_0_22_27
*563 FILLER_0_22_277
*564 FILLER_0_22_289
*565 FILLER_0_22_29
*566 FILLER_0_22_3
*567 FILLER_0_22_301
*568 FILLER_0_22_307
*569 FILLER_0_22_309
*570 FILLER_0_22_321
*571 FILLER_0_22_333
*572 FILLER_0_22_41
*573 FILLER_0_22_53
*574 FILLER_0_22_65
*575 FILLER_0_22_77
*576 FILLER_0_22_83
*577 FILLER_0_22_85
*578 FILLER_0_22_97
*579 FILLER_0_23_105
*580 FILLER_0_23_111
*581 FILLER_0_23_113
*582 FILLER_0_23_125
*583 FILLER_0_23_137
*584 FILLER_0_23_149
*585 FILLER_0_23_15
*586 FILLER_0_23_161
*587 FILLER_0_23_167
*588 FILLER_0_23_169
*589 FILLER_0_23_181
*590 FILLER_0_23_193
*591 FILLER_0_23_205
*592 FILLER_0_23_217
*593 FILLER_0_23_223
*594 FILLER_0_23_225
*595 FILLER_0_23_237
*596 FILLER_0_23_249
*597 FILLER_0_23_261
*598 FILLER_0_23_27
*599 FILLER_0_23_273
*600 FILLER_0_23_279
*601 FILLER_0_23_281
*602 FILLER_0_23_293
*603 FILLER_0_23_3
*604 FILLER_0_23_305
*605 FILLER_0_23_317
*606 FILLER_0_23_329
*607 FILLER_0_23_39
*608 FILLER_0_23_51
*609 FILLER_0_23_55
*610 FILLER_0_23_57
*611 FILLER_0_23_69
*612 FILLER_0_23_81
*613 FILLER_0_23_93
*614 FILLER_0_24_109
*615 FILLER_0_24_121
*616 FILLER_0_24_133
*617 FILLER_0_24_139
*618 FILLER_0_24_141
*619 FILLER_0_24_15
*620 FILLER_0_24_153
*621 FILLER_0_24_165
*622 FILLER_0_24_177
*623 FILLER_0_24_189
*624 FILLER_0_24_195
*625 FILLER_0_24_197
*626 FILLER_0_24_209
*627 FILLER_0_24_221
*628 FILLER_0_24_233
*629 FILLER_0_24_245
*630 FILLER_0_24_251
*631 FILLER_0_24_253
*632 FILLER_0_24_265
*633 FILLER_0_24_27
*634 FILLER_0_24_277
*635 FILLER_0_24_289
*636 FILLER_0_24_29
*637 FILLER_0_24_3
*638 FILLER_0_24_301
*639 FILLER_0_24_307
*640 FILLER_0_24_309
*641 FILLER_0_24_321
*642 FILLER_0_24_333
*643 FILLER_0_24_41
*644 FILLER_0_24_53
*645 FILLER_0_24_65
*646 FILLER_0_24_77
*647 FILLER_0_24_83
*648 FILLER_0_24_85
*649 FILLER_0_24_97
*650 FILLER_0_25_105
*651 FILLER_0_25_111
*652 FILLER_0_25_113
*653 FILLER_0_25_125
*654 FILLER_0_25_137
*655 FILLER_0_25_149
*656 FILLER_0_25_15
*657 FILLER_0_25_161
*658 FILLER_0_25_167
*659 FILLER_0_25_169
*660 FILLER_0_25_181
*661 FILLER_0_25_193
*662 FILLER_0_25_205
*663 FILLER_0_25_217
*664 FILLER_0_25_223
*665 FILLER_0_25_225
*666 FILLER_0_25_237
*667 FILLER_0_25_249
*668 FILLER_0_25_261
*669 FILLER_0_25_27
*670 FILLER_0_25_273
*671 FILLER_0_25_279
*672 FILLER_0_25_281
*673 FILLER_0_25_293
*674 FILLER_0_25_3
*675 FILLER_0_25_305
*676 FILLER_0_25_317
*677 FILLER_0_25_329
*678 FILLER_0_25_39
*679 FILLER_0_25_51
*680 FILLER_0_25_55
*681 FILLER_0_25_57
*682 FILLER_0_25_69
*683 FILLER_0_25_81
*684 FILLER_0_25_93
*685 FILLER_0_26_109
*686 FILLER_0_26_121
*687 FILLER_0_26_133
*688 FILLER_0_26_139
*689 FILLER_0_26_141
*690 FILLER_0_26_15
*691 FILLER_0_26_153
*692 FILLER_0_26_165
*693 FILLER_0_26_177
*694 FILLER_0_26_189
*695 FILLER_0_26_195
*696 FILLER_0_26_197
*697 FILLER_0_26_209
*698 FILLER_0_26_221
*699 FILLER_0_26_233
*700 FILLER_0_26_245
*701 FILLER_0_26_251
*702 FILLER_0_26_253
*703 FILLER_0_26_265
*704 FILLER_0_26_27
*705 FILLER_0_26_277
*706 FILLER_0_26_289
*707 FILLER_0_26_29
*708 FILLER_0_26_3
*709 FILLER_0_26_301
*710 FILLER_0_26_307
*711 FILLER_0_26_309
*712 FILLER_0_26_321
*713 FILLER_0_26_333
*714 FILLER_0_26_41
*715 FILLER_0_26_53
*716 FILLER_0_26_65
*717 FILLER_0_26_77
*718 FILLER_0_26_83
*719 FILLER_0_26_85
*720 FILLER_0_26_97
*721 FILLER_0_27_105
*722 FILLER_0_27_111
*723 FILLER_0_27_113
*724 FILLER_0_27_125
*725 FILLER_0_27_137
*726 FILLER_0_27_149
*727 FILLER_0_27_15
*728 FILLER_0_27_161
*729 FILLER_0_27_167
*730 FILLER_0_27_169
*731 FILLER_0_27_181
*732 FILLER_0_27_193
*733 FILLER_0_27_205
*734 FILLER_0_27_217
*735 FILLER_0_27_223
*736 FILLER_0_27_225
*737 FILLER_0_27_237
*738 FILLER_0_27_249
*739 FILLER_0_27_261
*740 FILLER_0_27_27
*741 FILLER_0_27_273
*742 FILLER_0_27_279
*743 FILLER_0_27_281
*744 FILLER_0_27_293
*745 FILLER_0_27_3
*746 FILLER_0_27_305
*747 FILLER_0_27_317
*748 FILLER_0_27_329
*749 FILLER_0_27_39
*750 FILLER_0_27_51
*751 FILLER_0_27_55
*752 FILLER_0_27_57
*753 FILLER_0_27_69
*754 FILLER_0_27_81
*755 FILLER_0_27_93
*756 FILLER_0_28_109
*757 FILLER_0_28_121
*758 FILLER_0_28_133
*759 FILLER_0_28_139
*760 FILLER_0_28_141
*761 FILLER_0_28_15
*762 FILLER_0_28_153
*763 FILLER_0_28_165
*764 FILLER_0_28_177
*765 FILLER_0_28_189
*766 FILLER_0_28_195
*767 FILLER_0_28_197
*768 FILLER_0_28_209
*769 FILLER_0_28_221
*770 FILLER_0_28_233
*771 FILLER_0_28_245
*772 FILLER_0_28_251
*773 FILLER_0_28_253
*774 FILLER_0_28_265
*775 FILLER_0_28_27
*776 FILLER_0_28_277
*777 FILLER_0_28_289
*778 FILLER_0_28_29
*779 FILLER_0_28_3
*780 FILLER_0_28_301
*781 FILLER_0_28_307
*782 FILLER_0_28_309
*783 FILLER_0_28_321
*784 FILLER_0_28_333
*785 FILLER_0_28_41
*786 FILLER_0_28_53
*787 FILLER_0_28_65
*788 FILLER_0_28_77
*789 FILLER_0_28_83
*790 FILLER_0_28_85
*791 FILLER_0_28_97
*792 FILLER_0_29_105
*793 FILLER_0_29_111
*794 FILLER_0_29_113
*795 FILLER_0_29_125
*796 FILLER_0_29_137
*797 FILLER_0_29_149
*798 FILLER_0_29_15
*799 FILLER_0_29_161
*800 FILLER_0_29_167
*801 FILLER_0_29_169
*802 FILLER_0_29_181
*803 FILLER_0_29_193
*804 FILLER_0_29_205
*805 FILLER_0_29_217
*806 FILLER_0_29_223
*807 FILLER_0_29_225
*808 FILLER_0_29_237
*809 FILLER_0_29_249
*810 FILLER_0_29_261
*811 FILLER_0_29_27
*812 FILLER_0_29_273
*813 FILLER_0_29_279
*814 FILLER_0_29_281
*815 FILLER_0_29_293
*816 FILLER_0_29_3
*817 FILLER_0_29_305
*818 FILLER_0_29_317
*819 FILLER_0_29_329
*820 FILLER_0_29_39
*821 FILLER_0_29_51
*822 FILLER_0_29_55
*823 FILLER_0_29_57
*824 FILLER_0_29_69
*825 FILLER_0_29_81
*826 FILLER_0_29_93
*827 FILLER_0_2_109
*828 FILLER_0_2_121
*829 FILLER_0_2_133
*830 FILLER_0_2_139
*831 FILLER_0_2_141
*832 FILLER_0_2_15
*833 FILLER_0_2_153
*834 FILLER_0_2_165
*835 FILLER_0_2_177
*836 FILLER_0_2_189
*837 FILLER_0_2_195
*838 FILLER_0_2_197
*839 FILLER_0_2_209
*840 FILLER_0_2_221
*841 FILLER_0_2_233
*842 FILLER_0_2_245
*843 FILLER_0_2_251
*844 FILLER_0_2_253
*845 FILLER_0_2_265
*846 FILLER_0_2_27
*847 FILLER_0_2_277
*848 FILLER_0_2_289
*849 FILLER_0_2_29
*850 FILLER_0_2_3
*851 FILLER_0_2_301
*852 FILLER_0_2_307
*853 FILLER_0_2_309
*854 FILLER_0_2_321
*855 FILLER_0_2_333
*856 FILLER_0_2_41
*857 FILLER_0_2_53
*858 FILLER_0_2_65
*859 FILLER_0_2_77
*860 FILLER_0_2_83
*861 FILLER_0_2_85
*862 FILLER_0_2_97
*863 FILLER_0_30_109
*864 FILLER_0_30_121
*865 FILLER_0_30_133
*866 FILLER_0_30_139
*867 FILLER_0_30_141
*868 FILLER_0_30_15
*869 FILLER_0_30_153
*870 FILLER_0_30_165
*871 FILLER_0_30_177
*872 FILLER_0_30_189
*873 FILLER_0_30_195
*874 FILLER_0_30_197
*875 FILLER_0_30_209
*876 FILLER_0_30_221
*877 FILLER_0_30_233
*878 FILLER_0_30_245
*879 FILLER_0_30_251
*880 FILLER_0_30_253
*881 FILLER_0_30_265
*882 FILLER_0_30_27
*883 FILLER_0_30_277
*884 FILLER_0_30_289
*885 FILLER_0_30_29
*886 FILLER_0_30_3
*887 FILLER_0_30_301
*888 FILLER_0_30_307
*889 FILLER_0_30_309
*890 FILLER_0_30_321
*891 FILLER_0_30_333
*892 FILLER_0_30_41
*893 FILLER_0_30_53
*894 FILLER_0_30_65
*895 FILLER_0_30_77
*896 FILLER_0_30_83
*897 FILLER_0_30_85
*898 FILLER_0_30_97
*899 FILLER_0_31_105
*900 FILLER_0_31_111
*901 FILLER_0_31_113
*902 FILLER_0_31_125
*903 FILLER_0_31_137
*904 FILLER_0_31_149
*905 FILLER_0_31_15
*906 FILLER_0_31_161
*907 FILLER_0_31_167
*908 FILLER_0_31_169
*909 FILLER_0_31_181
*910 FILLER_0_31_193
*911 FILLER_0_31_205
*912 FILLER_0_31_217
*913 FILLER_0_31_223
*914 FILLER_0_31_225
*915 FILLER_0_31_237
*916 FILLER_0_31_249
*917 FILLER_0_31_261
*918 FILLER_0_31_27
*919 FILLER_0_31_273
*920 FILLER_0_31_279
*921 FILLER_0_31_281
*922 FILLER_0_31_293
*923 FILLER_0_31_3
*924 FILLER_0_31_305
*925 FILLER_0_31_317
*926 FILLER_0_31_329
*927 FILLER_0_31_39
*928 FILLER_0_31_51
*929 FILLER_0_31_55
*930 FILLER_0_31_57
*931 FILLER_0_31_69
*932 FILLER_0_31_81
*933 FILLER_0_31_93
*934 FILLER_0_32_109
*935 FILLER_0_32_121
*936 FILLER_0_32_133
*937 FILLER_0_32_139
*938 FILLER_0_32_141
*939 FILLER_0_32_15
*940 FILLER_0_32_153
*941 FILLER_0_32_165
*942 FILLER_0_32_177
*943 FILLER_0_32_189
*944 FILLER_0_32_195
*945 FILLER_0_32_197
*946 FILLER_0_32_209
*947 FILLER_0_32_221
*948 FILLER_0_32_233
*949 FILLER_0_32_245
*950 FILLER_0_32_251
*951 FILLER_0_32_253
*952 FILLER_0_32_265
*953 FILLER_0_32_27
*954 FILLER_0_32_277
*955 FILLER_0_32_289
*956 FILLER_0_32_29
*957 FILLER_0_32_3
*958 FILLER_0_32_301
*959 FILLER_0_32_307
*960 FILLER_0_32_309
*961 FILLER_0_32_321
*962 FILLER_0_32_333
*963 FILLER_0_32_41
*964 FILLER_0_32_53
*965 FILLER_0_32_65
*966 FILLER_0_32_77
*967 FILLER_0_32_83
*968 FILLER_0_32_85
*969 FILLER_0_32_97
*970 FILLER_0_33_105
*971 FILLER_0_33_111
*972 FILLER_0_33_113
*973 FILLER_0_33_125
*974 FILLER_0_33_137
*975 FILLER_0_33_149
*976 FILLER_0_33_15
*977 FILLER_0_33_161
*978 FILLER_0_33_167
*979 FILLER_0_33_169
*980 FILLER_0_33_181
*981 FILLER_0_33_193
*982 FILLER_0_33_205
*983 FILLER_0_33_217
*984 FILLER_0_33_223
*985 FILLER_0_33_225
*986 FILLER_0_33_237
*987 FILLER_0_33_249
*988 FILLER_0_33_261
*989 FILLER_0_33_27
*990 FILLER_0_33_273
*991 FILLER_0_33_279
*992 FILLER_0_33_281
*993 FILLER_0_33_293
*994 FILLER_0_33_3
*995 FILLER_0_33_305
*996 FILLER_0_33_317
*997 FILLER_0_33_329
*998 FILLER_0_33_39
*999 FILLER_0_33_51
*1000 FILLER_0_33_55
*1001 FILLER_0_33_57
*1002 FILLER_0_33_69
*1003 FILLER_0_33_81
*1004 FILLER_0_33_93
*1005 FILLER_0_34_109
*1006 FILLER_0_34_121
*1007 FILLER_0_34_133
*1008 FILLER_0_34_139
*1009 FILLER_0_34_141
*1010 FILLER_0_34_15
*1011 FILLER_0_34_153
*1012 FILLER_0_34_165
*1013 FILLER_0_34_177
*1014 FILLER_0_34_189
*1015 FILLER_0_34_195
*1016 FILLER_0_34_197
*1017 FILLER_0_34_209
*1018 FILLER_0_34_221
*1019 FILLER_0_34_233
*1020 FILLER_0_34_245
*1021 FILLER_0_34_251
*1022 FILLER_0_34_253
*1023 FILLER_0_34_265
*1024 FILLER_0_34_27
*1025 FILLER_0_34_277
*1026 FILLER_0_34_289
*1027 FILLER_0_34_29
*1028 FILLER_0_34_3
*1029 FILLER_0_34_301
*1030 FILLER_0_34_307
*1031 FILLER_0_34_309
*1032 FILLER_0_34_321
*1033 FILLER_0_34_333
*1034 FILLER_0_34_41
*1035 FILLER_0_34_53
*1036 FILLER_0_34_65
*1037 FILLER_0_34_77
*1038 FILLER_0_34_83
*1039 FILLER_0_34_85
*1040 FILLER_0_34_97
*1041 FILLER_0_35_105
*1042 FILLER_0_35_111
*1043 FILLER_0_35_113
*1044 FILLER_0_35_125
*1045 FILLER_0_35_137
*1046 FILLER_0_35_149
*1047 FILLER_0_35_15
*1048 FILLER_0_35_161
*1049 FILLER_0_35_167
*1050 FILLER_0_35_169
*1051 FILLER_0_35_181
*1052 FILLER_0_35_193
*1053 FILLER_0_35_205
*1054 FILLER_0_35_217
*1055 FILLER_0_35_223
*1056 FILLER_0_35_225
*1057 FILLER_0_35_237
*1058 FILLER_0_35_249
*1059 FILLER_0_35_261
*1060 FILLER_0_35_27
*1061 FILLER_0_35_273
*1062 FILLER_0_35_279
*1063 FILLER_0_35_281
*1064 FILLER_0_35_293
*1065 FILLER_0_35_3
*1066 FILLER_0_35_305
*1067 FILLER_0_35_317
*1068 FILLER_0_35_329
*1069 FILLER_0_35_39
*1070 FILLER_0_35_51
*1071 FILLER_0_35_55
*1072 FILLER_0_35_57
*1073 FILLER_0_35_69
*1074 FILLER_0_35_81
*1075 FILLER_0_35_93
*1076 FILLER_0_36_109
*1077 FILLER_0_36_121
*1078 FILLER_0_36_133
*1079 FILLER_0_36_139
*1080 FILLER_0_36_141
*1081 FILLER_0_36_15
*1082 FILLER_0_36_153
*1083 FILLER_0_36_165
*1084 FILLER_0_36_177
*1085 FILLER_0_36_189
*1086 FILLER_0_36_195
*1087 FILLER_0_36_197
*1088 FILLER_0_36_209
*1089 FILLER_0_36_221
*1090 FILLER_0_36_233
*1091 FILLER_0_36_245
*1092 FILLER_0_36_251
*1093 FILLER_0_36_253
*1094 FILLER_0_36_265
*1095 FILLER_0_36_27
*1096 FILLER_0_36_277
*1097 FILLER_0_36_289
*1098 FILLER_0_36_29
*1099 FILLER_0_36_3
*1100 FILLER_0_36_301
*1101 FILLER_0_36_307
*1102 FILLER_0_36_309
*1103 FILLER_0_36_321
*1104 FILLER_0_36_333
*1105 FILLER_0_36_41
*1106 FILLER_0_36_53
*1107 FILLER_0_36_65
*1108 FILLER_0_36_77
*1109 FILLER_0_36_83
*1110 FILLER_0_36_85
*1111 FILLER_0_36_97
*1112 FILLER_0_37_105
*1113 FILLER_0_37_111
*1114 FILLER_0_37_113
*1115 FILLER_0_37_125
*1116 FILLER_0_37_137
*1117 FILLER_0_37_149
*1118 FILLER_0_37_15
*1119 FILLER_0_37_161
*1120 FILLER_0_37_166
*1121 FILLER_0_37_169
*1122 FILLER_0_37_174
*1123 FILLER_0_37_186
*1124 FILLER_0_37_198
*1125 FILLER_0_37_210
*1126 FILLER_0_37_222
*1127 FILLER_0_37_225
*1128 FILLER_0_37_237
*1129 FILLER_0_37_249
*1130 FILLER_0_37_261
*1131 FILLER_0_37_27
*1132 FILLER_0_37_273
*1133 FILLER_0_37_279
*1134 FILLER_0_37_281
*1135 FILLER_0_37_293
*1136 FILLER_0_37_3
*1137 FILLER_0_37_305
*1138 FILLER_0_37_317
*1139 FILLER_0_37_329
*1140 FILLER_0_37_39
*1141 FILLER_0_37_51
*1142 FILLER_0_37_55
*1143 FILLER_0_37_57
*1144 FILLER_0_37_69
*1145 FILLER_0_37_81
*1146 FILLER_0_37_93
*1147 FILLER_0_38_10
*1148 FILLER_0_38_102
*1149 FILLER_0_38_106
*1150 FILLER_0_38_110
*1151 FILLER_0_38_113
*1152 FILLER_0_38_118
*1153 FILLER_0_38_122
*1154 FILLER_0_38_126
*1155 FILLER_0_38_138
*1156 FILLER_0_38_14
*1157 FILLER_0_38_141
*1158 FILLER_0_38_153
*1159 FILLER_0_38_18
*1160 FILLER_0_38_184
*1161 FILLER_0_38_190
*1162 FILLER_0_38_197
*1163 FILLER_0_38_209
*1164 FILLER_0_38_22
*1165 FILLER_0_38_221
*1166 FILLER_0_38_225
*1167 FILLER_0_38_237
*1168 FILLER_0_38_249
*1169 FILLER_0_38_253
*1170 FILLER_0_38_265
*1171 FILLER_0_38_277
*1172 FILLER_0_38_281
*1173 FILLER_0_38_293
*1174 FILLER_0_38_305
*1175 FILLER_0_38_309
*1176 FILLER_0_38_32
*1177 FILLER_0_38_321
*1178 FILLER_0_38_333
*1179 FILLER_0_38_38
*1180 FILLER_0_38_42
*1181 FILLER_0_38_46
*1182 FILLER_0_38_50
*1183 FILLER_0_38_54
*1184 FILLER_0_38_57
*1185 FILLER_0_38_6
*1186 FILLER_0_38_62
*1187 FILLER_0_38_66
*1188 FILLER_0_38_70
*1189 FILLER_0_38_74
*1190 FILLER_0_38_78
*1191 FILLER_0_38_88
*1192 FILLER_0_38_94
*1193 FILLER_0_38_98
*1194 FILLER_0_3_105
*1195 FILLER_0_3_111
*1196 FILLER_0_3_113
*1197 FILLER_0_3_125
*1198 FILLER_0_3_137
*1199 FILLER_0_3_149
*1200 FILLER_0_3_15
*1201 FILLER_0_3_161
*1202 FILLER_0_3_167
*1203 FILLER_0_3_169
*1204 FILLER_0_3_181
*1205 FILLER_0_3_193
*1206 FILLER_0_3_205
*1207 FILLER_0_3_217
*1208 FILLER_0_3_223
*1209 FILLER_0_3_225
*1210 FILLER_0_3_237
*1211 FILLER_0_3_249
*1212 FILLER_0_3_261
*1213 FILLER_0_3_27
*1214 FILLER_0_3_273
*1215 FILLER_0_3_279
*1216 FILLER_0_3_281
*1217 FILLER_0_3_293
*1218 FILLER_0_3_3
*1219 FILLER_0_3_305
*1220 FILLER_0_3_317
*1221 FILLER_0_3_329
*1222 FILLER_0_3_39
*1223 FILLER_0_3_51
*1224 FILLER_0_3_55
*1225 FILLER_0_3_57
*1226 FILLER_0_3_69
*1227 FILLER_0_3_81
*1228 FILLER_0_3_93
*1229 FILLER_0_4_109
*1230 FILLER_0_4_121
*1231 FILLER_0_4_133
*1232 FILLER_0_4_139
*1233 FILLER_0_4_141
*1234 FILLER_0_4_15
*1235 FILLER_0_4_153
*1236 FILLER_0_4_165
*1237 FILLER_0_4_177
*1238 FILLER_0_4_189
*1239 FILLER_0_4_195
*1240 FILLER_0_4_197
*1241 FILLER_0_4_209
*1242 FILLER_0_4_221
*1243 FILLER_0_4_233
*1244 FILLER_0_4_245
*1245 FILLER_0_4_251
*1246 FILLER_0_4_253
*1247 FILLER_0_4_265
*1248 FILLER_0_4_27
*1249 FILLER_0_4_277
*1250 FILLER_0_4_289
*1251 FILLER_0_4_29
*1252 FILLER_0_4_3
*1253 FILLER_0_4_301
*1254 FILLER_0_4_307
*1255 FILLER_0_4_309
*1256 FILLER_0_4_321
*1257 FILLER_0_4_333
*1258 FILLER_0_4_41
*1259 FILLER_0_4_53
*1260 FILLER_0_4_65
*1261 FILLER_0_4_77
*1262 FILLER_0_4_83
*1263 FILLER_0_4_85
*1264 FILLER_0_4_97
*1265 FILLER_0_5_105
*1266 FILLER_0_5_111
*1267 FILLER_0_5_113
*1268 FILLER_0_5_125
*1269 FILLER_0_5_137
*1270 FILLER_0_5_149
*1271 FILLER_0_5_15
*1272 FILLER_0_5_161
*1273 FILLER_0_5_167
*1274 FILLER_0_5_169
*1275 FILLER_0_5_181
*1276 FILLER_0_5_193
*1277 FILLER_0_5_205
*1278 FILLER_0_5_217
*1279 FILLER_0_5_223
*1280 FILLER_0_5_225
*1281 FILLER_0_5_237
*1282 FILLER_0_5_249
*1283 FILLER_0_5_261
*1284 FILLER_0_5_27
*1285 FILLER_0_5_273
*1286 FILLER_0_5_279
*1287 FILLER_0_5_281
*1288 FILLER_0_5_293
*1289 FILLER_0_5_3
*1290 FILLER_0_5_305
*1291 FILLER_0_5_317
*1292 FILLER_0_5_329
*1293 FILLER_0_5_39
*1294 FILLER_0_5_51
*1295 FILLER_0_5_55
*1296 FILLER_0_5_57
*1297 FILLER_0_5_69
*1298 FILLER_0_5_81
*1299 FILLER_0_5_93
*1300 FILLER_0_6_109
*1301 FILLER_0_6_121
*1302 FILLER_0_6_133
*1303 FILLER_0_6_139
*1304 FILLER_0_6_141
*1305 FILLER_0_6_15
*1306 FILLER_0_6_153
*1307 FILLER_0_6_165
*1308 FILLER_0_6_177
*1309 FILLER_0_6_189
*1310 FILLER_0_6_195
*1311 FILLER_0_6_197
*1312 FILLER_0_6_209
*1313 FILLER_0_6_221
*1314 FILLER_0_6_233
*1315 FILLER_0_6_245
*1316 FILLER_0_6_251
*1317 FILLER_0_6_253
*1318 FILLER_0_6_265
*1319 FILLER_0_6_27
*1320 FILLER_0_6_277
*1321 FILLER_0_6_289
*1322 FILLER_0_6_29
*1323 FILLER_0_6_3
*1324 FILLER_0_6_301
*1325 FILLER_0_6_307
*1326 FILLER_0_6_309
*1327 FILLER_0_6_321
*1328 FILLER_0_6_333
*1329 FILLER_0_6_41
*1330 FILLER_0_6_53
*1331 FILLER_0_6_65
*1332 FILLER_0_6_77
*1333 FILLER_0_6_83
*1334 FILLER_0_6_85
*1335 FILLER_0_6_97
*1336 FILLER_0_7_105
*1337 FILLER_0_7_111
*1338 FILLER_0_7_113
*1339 FILLER_0_7_125
*1340 FILLER_0_7_137
*1341 FILLER_0_7_149
*1342 FILLER_0_7_15
*1343 FILLER_0_7_161
*1344 FILLER_0_7_167
*1345 FILLER_0_7_169
*1346 FILLER_0_7_181
*1347 FILLER_0_7_193
*1348 FILLER_0_7_205
*1349 FILLER_0_7_217
*1350 FILLER_0_7_223
*1351 FILLER_0_7_225
*1352 FILLER_0_7_237
*1353 FILLER_0_7_249
*1354 FILLER_0_7_261
*1355 FILLER_0_7_27
*1356 FILLER_0_7_273
*1357 FILLER_0_7_279
*1358 FILLER_0_7_281
*1359 FILLER_0_7_293
*1360 FILLER_0_7_3
*1361 FILLER_0_7_305
*1362 FILLER_0_7_317
*1363 FILLER_0_7_329
*1364 FILLER_0_7_39
*1365 FILLER_0_7_51
*1366 FILLER_0_7_55
*1367 FILLER_0_7_57
*1368 FILLER_0_7_69
*1369 FILLER_0_7_81
*1370 FILLER_0_7_93
*1371 FILLER_0_8_109
*1372 FILLER_0_8_121
*1373 FILLER_0_8_133
*1374 FILLER_0_8_139
*1375 FILLER_0_8_141
*1376 FILLER_0_8_15
*1377 FILLER_0_8_153
*1378 FILLER_0_8_165
*1379 FILLER_0_8_177
*1380 FILLER_0_8_189
*1381 FILLER_0_8_195
*1382 FILLER_0_8_197
*1383 FILLER_0_8_209
*1384 FILLER_0_8_221
*1385 FILLER_0_8_233
*1386 FILLER_0_8_245
*1387 FILLER_0_8_251
*1388 FILLER_0_8_253
*1389 FILLER_0_8_265
*1390 FILLER_0_8_27
*1391 FILLER_0_8_277
*1392 FILLER_0_8_289
*1393 FILLER_0_8_29
*1394 FILLER_0_8_3
*1395 FILLER_0_8_301
*1396 FILLER_0_8_307
*1397 FILLER_0_8_309
*1398 FILLER_0_8_321
*1399 FILLER_0_8_333
*1400 FILLER_0_8_41
*1401 FILLER_0_8_53
*1402 FILLER_0_8_65
*1403 FILLER_0_8_77
*1404 FILLER_0_8_83
*1405 FILLER_0_8_85
*1406 FILLER_0_8_97
*1407 FILLER_0_9_105
*1408 FILLER_0_9_111
*1409 FILLER_0_9_113
*1410 FILLER_0_9_125
*1411 FILLER_0_9_137
*1412 FILLER_0_9_149
*1413 FILLER_0_9_15
*1414 FILLER_0_9_161
*1415 FILLER_0_9_167
*1416 FILLER_0_9_169
*1417 FILLER_0_9_181
*1418 FILLER_0_9_193
*1419 FILLER_0_9_205
*1420 FILLER_0_9_217
*1421 FILLER_0_9_223
*1422 FILLER_0_9_225
*1423 FILLER_0_9_237
*1424 FILLER_0_9_249
*1425 FILLER_0_9_261
*1426 FILLER_0_9_27
*1427 FILLER_0_9_273
*1428 FILLER_0_9_279
*1429 FILLER_0_9_281
*1430 FILLER_0_9_293
*1431 FILLER_0_9_3
*1432 FILLER_0_9_305
*1433 FILLER_0_9_317
*1434 FILLER_0_9_329
*1435 FILLER_0_9_39
*1436 FILLER_0_9_51
*1437 FILLER_0_9_55
*1438 FILLER_0_9_57
*1439 FILLER_0_9_69
*1440 FILLER_0_9_81
*1441 FILLER_0_9_93
*1442 PHY_EDGE_ROW_0_Left_39
*1443 PHY_EDGE_ROW_0_Right_0
*1444 PHY_EDGE_ROW_10_Left_49
*1445 PHY_EDGE_ROW_10_Right_10
*1446 PHY_EDGE_ROW_11_Left_50
*1447 PHY_EDGE_ROW_11_Right_11
*1448 PHY_EDGE_ROW_12_Left_51
*1449 PHY_EDGE_ROW_12_Right_12