*SPEF "ieee 1481-1999"
*DESIGN "tt_um_bit_ctrl"
*DATE "13:27:11 Friday April 19, 2024"
*VENDOR "The OpenROAD Project"
*PROGRAM "OpenROAD"
*VERSION "0889970d1790a2617e69f253221b8bd7626e51dc"
*DESIGN_FLOW "NAME_SCOPE LOCAL" "PIN_CAP NONE"
*DIVIDER /
*DELIMITER :
*BUS_DELIMITER []
*T_UNIT 1 NS
*C_UNIT 1 PF
*R_UNIT 1 OHM
*L_UNIT 1 HENRY

*NAME_MAP
*3 clk
*4 ena
*5 rst_n
*6 ui_in[0]
*7 ui_in[1]
*8 ui_in[2]
*9 ui_in[3]
*10 ui_in[4]
*11 ui_in[5]
*12 ui_in[6]
*13 ui_in[7]
*14 uio_in[0]
*15 uio_in[1]
*16 uio_in[2]
*17 uio_in[3]
*18 uio_in[4]
*19 uio_in[5]
*20 uio_in[6]
*21 uio_in[7]
*22 net2
*23 net3
*24 net4
*25 net5
*26 net6
*27 net7
*28 net8
*29 net9
*30 net10
*31 net11
*32 net12
*33 net13
*34 net14
*35 net15
*36 net16
*37 net17
*38 net18
*39 net19
*40 uo_out[2]
*41 uo_out[3]
*42 uo_out[4]
*43 uo_out[5]
*44 uo_out[6]
*45 uo_out[7]
*46 _00_
*47 _01_
*48 _02_
*49 _03_
*50 _04_
*51 _05_
*52 _06_
*53 _07_
*54 clknet_0_clk
*55 clknet_1_0__leaf_clk
*56 clknet_1_1__leaf_clk
*57 counter\[0\]
*58 counter\[1\]
*59 counter\[2\]
*60 net1
*61 net20
*62 net21
*63 FILLER_0_0_109
*64 FILLER_0_0_113
*65 FILLER_0_0_125
*66 FILLER_0_0_137
*67 FILLER_0_0_141
*68 FILLER_0_0_15
*69 FILLER_0_0_153
*70 FILLER_0_0_165
*71 FILLER_0_0_169
*72 FILLER_0_0_181
*73 FILLER_0_0_193
*74 FILLER_0_0_197
*75 FILLER_0_0_209
*76 FILLER_0_0_221
*77 FILLER_0_0_225
*78 FILLER_0_0_237
*79 FILLER_0_0_249
*80 FILLER_0_0_253
*81 FILLER_0_0_265
*82 FILLER_0_0_27
*83 FILLER_0_0_277
*84 FILLER_0_0_281
*85 FILLER_0_0_29
*86 FILLER_0_0_293
*87 FILLER_0_0_3
*88 FILLER_0_0_305
*89 FILLER_0_0_309
*90 FILLER_0_0_321
*91 FILLER_0_0_333
*92 FILLER_0_0_41
*93 FILLER_0_0_53
*94 FILLER_0_0_57
*95 FILLER_0_0_69
*96 FILLER_0_0_81
*97 FILLER_0_0_85
*98 FILLER_0_0_97
*99 FILLER_0_10_109
*100 FILLER_0_10_121
*101 FILLER_0_10_133
*102 FILLER_0_10_139
*103 FILLER_0_10_141
*104 FILLER_0_10_15
*105 FILLER_0_10_153
*106 FILLER_0_10_165
*107 FILLER_0_10_177
*108 FILLER_0_10_189
*109 FILLER_0_10_195
*110 FILLER_0_10_197
*111 FILLER_0_10_209
*112 FILLER_0_10_221
*113 FILLER_0_10_233
*114 FILLER_0_10_245
*115 FILLER_0_10_251
*116 FILLER_0_10_253
*117 FILLER_0_10_265
*118 FILLER_0_10_27
*119 FILLER_0_10_277
*120 FILLER_0_10_289
*121 FILLER_0_10_29
*122 FILLER_0_10_3
*123 FILLER_0_10_301
*124 FILLER_0_10_307
*125 FILLER_0_10_309
*126 FILLER_0_10_321
*127 FILLER_0_10_333
*128 FILLER_0_10_41
*129 FILLER_0_10_53
*130 FILLER_0_10_65
*131 FILLER_0_10_77
*132 FILLER_0_10_83
*133 FILLER_0_10_85
*134 FILLER_0_10_97
*135 FILLER_0_11_105
*136 FILLER_0_11_111
*137 FILLER_0_11_113
*138 FILLER_0_11_125
*139 FILLER_0_11_137
*140 FILLER_0_11_149
*141 FILLER_0_11_15
*142 FILLER_0_11_161
*143 FILLER_0_11_167
*144 FILLER_0_11_169
*145 FILLER_0_11_181
*146 FILLER_0_11_193
*147 FILLER_0_11_205
*148 FILLER_0_11_217
*149 FILLER_0_11_223
*150 FILLER_0_11_225
*151 FILLER_0_11_237
*152 FILLER_0_11_249
*153 FILLER_0_11_261
*154 FILLER_0_11_27
*155 FILLER_0_11_273
*156 FILLER_0_11_279
*157 FILLER_0_11_281
*158 FILLER_0_11_293
*159 FILLER_0_11_3
*160 FILLER_0_11_305
*161 FILLER_0_11_317
*162 FILLER_0_11_329
*163 FILLER_0_11_39
*164 FILLER_0_11_51
*165 FILLER_0_11_55
*166 FILLER_0_11_57
*167 FILLER_0_11_69
*168 FILLER_0_11_81
*169 FILLER_0_11_93
*170 FILLER_0_12_109
*171 FILLER_0_12_121
*172 FILLER_0_12_133
*173 FILLER_0_12_139
*174 FILLER_0_12_141
*175 FILLER_0_12_15
*176 FILLER_0_12_153
*177 FILLER_0_12_165
*178 FILLER_0_12_177
*179 FILLER_0_12_189
*180 FILLER_0_12_195
*181 FILLER_0_12_197
*182 FILLER_0_12_209
*183 FILLER_0_12_221
*184 FILLER_0_12_233
*185 FILLER_0_12_245
*186 FILLER_0_12_251
*187 FILLER_0_12_253
*188 FILLER_0_12_265
*189 FILLER_0_12_27
*190 FILLER_0_12_277
*191 FILLER_0_12_289
*192 FILLER_0_12_29
*193 FILLER_0_12_3
*194 FILLER_0_12_301
*195 FILLER_0_12_307
*196 FILLER_0_12_309
*197 FILLER_0_12_321
*198 FILLER_0_12_333
*199 FILLER_0_12_41
*200 FILLER_0_12_53
*201 FILLER_0_12_65
*202 FILLER_0_12_77
*203 FILLER_0_12_83
*204 FILLER_0_12_85
*205 FILLER_0_12_97
*206 FILLER_0_13_105
*207 FILLER_0_13_111
*208 FILLER_0_13_113
*209 FILLER_0_13_125
*210 FILLER_0_13_137
*211 FILLER_0_13_149
*212 FILLER_0_13_15
*213 FILLER_0_13_161
*214 FILLER_0_13_167
*215 FILLER_0_13_169
*216 FILLER_0_13_181
*217 FILLER_0_13_193
*218 FILLER_0_13_205
*219 FILLER_0_13_217
*220 FILLER_0_13_223
*221 FILLER_0_13_225
*222 FILLER_0_13_237
*223 FILLER_0_13_249
*224 FILLER_0_13_261
*225 FILLER_0_13_27
*226 FILLER_0_13_273
*227 FILLER_0_13_279
*228 FILLER_0_13_281
*229 FILLER_0_13_293
*230 FILLER_0_13_3
*231 FILLER_0_13_305
*232 FILLER_0_13_317
*233 FILLER_0_13_329
*234 FILLER_0_13_39
*235 FILLER_0_13_51
*236 FILLER_0_13_55
*237 FILLER_0_13_57
*238 FILLER_0_13_69
*239 FILLER_0_13_81
*240 FILLER_0_13_93
*241 FILLER_0_14_109
*242 FILLER_0_14_121
*243 FILLER_0_14_133
*244 FILLER_0_14_139
*245 FILLER_0_14_141
*246 FILLER_0_14_15
*247 FILLER_0_14_153
*248 FILLER_0_14_165
*249 FILLER_0_14_177
*250 FILLER_0_14_189
*251 FILLER_0_14_195
*252 FILLER_0_14_197
*253 FILLER_0_14_209
*254 FILLER_0_14_221
*255 FILLER_0_14_233
*256 FILLER_0_14_245
*257 FILLER_0_14_251
*258 FILLER_0_14_253
*259 FILLER_0_14_265
*260 FILLER_0_14_27
*261 FILLER_0_14_277
*262 FILLER_0_14_289
*263 FILLER_0_14_29
*264 FILLER_0_14_3
*265 FILLER_0_14_301
*266 FILLER_0_14_307
*267 FILLER_0_14_309
*268 FILLER_0_14_321
*269 FILLER_0_14_333
*270 FILLER_0_14_41
*271 FILLER_0_14_53
*272 FILLER_0_14_65
*273 FILLER_0_14_77
*274 FILLER_0_14_83
*275 FILLER_0_14_85
*276 FILLER_0_14_97
*277 FILLER_0_15_105
*278 FILLER_0_15_111
*279 FILLER_0_15_113
*280 FILLER_0_15_125
*281 FILLER_0_15_137
*282 FILLER_0_15_149
*283 FILLER_0_15_15
*284 FILLER_0_15_161
*285 FILLER_0_15_167
*286 FILLER_0_15_169
*287 FILLER_0_15_181
*288 FILLER_0_15_193
*289 FILLER_0_15_205
*290 FILLER_0_15_217
*291 FILLER_0_15_223
*292 FILLER_0_15_225
*293 FILLER_0_15_237
*294 FILLER_0_15_249
*295 FILLER_0_15_261
*296 FILLER_0_15_27
*297 FILLER_0_15_273
*298 FILLER_0_15_279
*299 FILLER_0_15_281
*300 FILLER_0_15_293
*301 FILLER_0_15_3
*302 FILLER_0_15_305
*303 FILLER_0_15_317
*304 FILLER_0_15_329
*305 FILLER_0_15_39
*306 FILLER_0_15_51
*307 FILLER_0_15_55
*308 FILLER_0_15_57
*309 FILLER_0_15_69
*310 FILLER_0_15_81
*311 FILLER_0_15_93
*312 FILLER_0_16_109
*313 FILLER_0_16_121
*314 FILLER_0_16_133
*315 FILLER_0_16_139
*316 FILLER_0_16_141
*317 FILLER_0_16_15
*318 FILLER_0_16_153
*319 FILLER_0_16_165
*320 FILLER_0_16_177
*321 FILLER_0_16_189
*322 FILLER_0_16_195
*323 FILLER_0_16_197
*324 FILLER_0_16_209
*325 FILLER_0_16_221
*326 FILLER_0_16_233
*327 FILLER_0_16_245
*328 FILLER_0_16_251
*329 FILLER_0_16_253
*330 FILLER_0_16_265
*331 FILLER_0_16_27
*332 FILLER_0_16_277
*333 FILLER_0_16_289
*334 FILLER_0_16_29
*335 FILLER_0_16_3
*336 FILLER_0_16_301
*337 FILLER_0_16_307
*338 FILLER_0_16_309
*339 FILLER_0_16_321
*340 FILLER_0_16_333
*341 FILLER_0_16_41
*342 FILLER_0_16_53
*343 FILLER_0_16_65
*344 FILLER_0_16_77
*345 FILLER_0_16_83
*346 FILLER_0_16_85
*347 FILLER_0_16_97
*348 FILLER_0_17_105
*349 FILLER_0_17_111
*350 FILLER_0_17_113
*351 FILLER_0_17_125
*352 FILLER_0_17_137
*353 FILLER_0_17_149
*354 FILLER_0_17_15
*355 FILLER_0_17_161
*356 FILLER_0_17_167
*357 FILLER_0_17_169
*358 FILLER_0_17_181
*359 FILLER_0_17_193
*360 FILLER_0_17_205
*361 FILLER_0_17_217
*362 FILLER_0_17_223
*363 FILLER_0_17_225
*364 FILLER_0_17_237
*365 FILLER_0_17_249
*366 FILLER_0_17_261
*367 FILLER_0_17_27
*368 FILLER_0_17_273
*369 FILLER_0_17_279
*370 FILLER_0_17_281
*371 FILLER_0_17_293
*372 FILLER_0_17_3
*373 FILLER_0_17_305
*374 FILLER_0_17_317
*375 FILLER_0_17_329
*376 FILLER_0_17_39
*377 FILLER_0_17_51
*378 FILLER_0_17_55
*379 FILLER_0_17_57
*380 FILLER_0_17_69
*381 FILLER_0_17_81
*382 FILLER_0_17_93
*383 FILLER_0_18_109
*384 FILLER_0_18_121
*385 FILLER_0_18_133
*386 FILLER_0_18_139
*387 FILLER_0_18_141
*388 FILLER_0_18_15
*389 FILLER_0_18_153
*390 FILLER_0_18_165
*391 FILLER_0_18_177
*392 FILLER_0_18_189
*393 FILLER_0_18_195
*394 FILLER_0_18_197
*395 FILLER_0_18_209
*396 FILLER_0_18_221
*397 FILLER_0_18_233
*398 FILLER_0_18_245
*399 FILLER_0_18_251
*400 FILLER_0_18_253
*401 FILLER_0_18_265
*402 FILLER_0_18_27
*403 FILLER_0_18_277
*404 FILLER_0_18_289
*405 FILLER_0_18_29
*406 FILLER_0_18_3
*407 FILLER_0_18_301
*408 FILLER_0_18_307
*409 FILLER_0_18_309
*410 FILLER_0_18_321
*411 FILLER_0_18_333
*412 FILLER_0_18_41
*413 FILLER_0_18_53
*414 FILLER_0_18_65
*415 FILLER_0_18_77
*416 FILLER_0_18_83
*417 FILLER_0_18_85
*418 FILLER_0_18_97
*419 FILLER_0_19_105
*420 FILLER_0_19_111
*421 FILLER_0_19_113
*422 FILLER_0_19_125
*423 FILLER_0_19_137
*424 FILLER_0_19_149
*425 FILLER_0_19_15
*426 FILLER_0_19_161
*427 FILLER_0_19_167
*428 FILLER_0_19_169
*429 FILLER_0_19_181
*430 FILLER_0_19_193
*431 FILLER_0_19_205
*432 FILLER_0_19_217
*433 FILLER_0_19_223
*434 FILLER_0_19_225
*435 FILLER_0_19_237
*436 FILLER_0_19_249
*437 FILLER_0_19_261
*438 FILLER_0_19_27
*439 FILLER_0_19_273
*440 FILLER_0_19_279
*441 FILLER_0_19_281
*442 FILLER_0_19_293
*443 FILLER_0_19_3
*444 FILLER_0_19_305
*445 FILLER_0_19_317
*446 FILLER_0_19_329
*447 FILLER_0_19_39
*448 FILLER_0_19_51
*449 FILLER_0_19_55
*450 FILLER_0_19_57
*451 FILLER_0_19_69
*452 FILLER_0_19_81
*453 FILLER_0_19_93
*454 FILLER_0_1_105
*455 FILLER_0_1_111
*456 FILLER_0_1_113
*457 FILLER_0_1_125
*458 FILLER_0_1_137
*459 FILLER_0_1_149
*460 FILLER_0_1_15
*461 FILLER_0_1_161
*462 FILLER_0_1_167
*463 FILLER_0_1_169
*464 FILLER_0_1_181
*465 FILLER_0_1_193
*466 FILLER_0_1_205
*467 FILLER_0_1_217
*468 FILLER_0_1_223
*469 FILLER_0_1_225
*470 FILLER_0_1_237
*471 FILLER_0_1_249
*472 FILLER_0_1_261
*473 FILLER_0_1_27
*474 FILLER_0_1_273
*475 FILLER_0_1_279
*476 FILLER_0_1_281
*477 FILLER_0_1_293
*478 FILLER_0_1_3
*479 FILLER_0_1_305
*480 FILLER_0_1_317
*481 FILLER_0_1_329
*482 FILLER_0_1_39
*483 FILLER_0_1_51
*484 FILLER_0_1_55
*485 FILLER_0_1_57
*486 FILLER_0_1_69
*487 FILLER_0_1_81
*488 FILLER_0_1_93
*489 FILLER_0_20_109
*490 FILLER_0_20_121
*491 FILLER_0_20_133
*492 FILLER_0_20_139
*493 FILLER_0_20_141
*494 FILLER_0_20_15
*495 FILLER_0_20_153
*496 FILLER_0_20_165
*497 FILLER_0_20_177
*498 FILLER_0_20_189
*499 FILLER_0_20_195
*500 FILLER_0_20_197
*501 FILLER_0_20_209
*502 FILLER_0_20_221
*503 FILLER_0_20_233
*504 FILLER_0_20_245
*505 FILLER_0_20_251
*506 FILLER_0_20_253
*507 FILLER_0_20_265
*508 FILLER_0_20_27
*509 FILLER_0_20_277
*510 FILLER_0_20_289
*511 FILLER_0_20_29
*512 FILLER_0_20_3
*513 FILLER_0_20_301
*514 FILLER_0_20_307
*515 FILLER_0_20_309
*516 FILLER_0_20_321
*517 FILLER_0_20_333
*518 FILLER_0_20_41
*519 FILLER_0_20_53
*520 FILLER_0_20_65
*521 FILLER_0_20_77
*522 FILLER_0_20_83
*523 FILLER_0_20_85
*524 FILLER_0_20_97
*525 FILLER_0_21_105
*526 FILLER_0_21_111
*527 FILLER_0_21_113
*528 FILLER_0_21_125
*529 FILLER_0_21_137
*530 FILLER_0_21_149
*531 FILLER_0_21_15
*532 FILLER_0_21_161
*533 FILLER_0_21_167
*534 FILLER_0_21_169
*535 FILLER_0_21_181
*536 FILLER_0_21_193
*537 FILLER_0_21_205
*538 FILLER_0_21_217
*539 FILLER_0_21_223
*540 FILLER_0_21_225
*541 FILLER_0_21_237
*542 FILLER_0_21_249
*543 FILLER_0_21_261
*544 FILLER_0_21_27
*545 FILLER_0_21_273
*546 FILLER_0_21_279
*547 FILLER_0_21_281
*548 FILLER_0_21_293
*549 FILLER_0_21_3
*550 FILLER_0_21_305
*551 FILLER_0_21_317
*552 FILLER_0_21_329
*553 FILLER_0_21_39
*554 FILLER_0_21_51
*555 FILLER_0_21_55
*556 FILLER_0_21_57
*557 FILLER_0_21_69
*558 FILLER_0_21_81
*559 FILLER_0_21_93
*560 FILLER_0_22_109
*561 FILLER_0_22_121
*562 FILLER_0_22_133
*563 FILLER_0_22_139
*564 FILLER_0_22_141
*565 FILLER_0_22_15
*566 FILLER_0_22_153
*567 FILLER_0_22_165
*568 FILLER_0_22_177
*569 FILLER_0_22_189
*570 FILLER_0_22_195
*571 FILLER_0_22_197
*572 FILLER_0_22_209
*573 FILLER_0_22_221
*574 FILLER_0_22_233
*575 FILLER_0_22_245
*576 FILLER_0_22_251
*577 FILLER_0_22_253
*578 FILLER_0_22_265
*579 FILLER_0_22_27
*580 FILLER_0_22_277
*581 FILLER_0_22_289
*582 FILLER_0_22_29
*583 FILLER_0_22_3
*584 FILLER_0_22_301
*585 FILLER_0_22_307
*586 FILLER_0_22_309
*587 FILLER_0_22_321
*588 FILLER_0_22_333
*589 FILLER_0_22_41
*590 FILLER_0_22_53
*591 FILLER_0_22_65
*592 FILLER_0_22_77
*593 FILLER_0_22_83
*594 FILLER_0_22_85
*595 FILLER_0_22_97
*596 FILLER_0_23_105
*597 FILLER_0_23_111
*598 FILLER_0_23_113
*599 FILLER_0_23_125
*600 FILLER_0_23_137
*601 FILLER_0_23_149
*602 FILLER_0_23_15
*603 FILLER_0_23_161
*604 FILLER_0_23_167
*605 FILLER_0_23_169
*606 FILLER_0_23_181
*607 FILLER_0_23_193
*608 FILLER_0_23_205
*609 FILLER_0_23_217
*610 FILLER_0_23_223
*611 FILLER_0_23_225
*612 FILLER_0_23_237
*613 FILLER_0_23_249
*614 FILLER_0_23_261
*615 FILLER_0_23_27
*616 FILLER_0_23_273
*617 FILLER_0_23_279
*618 FILLER_0_23_281
*619 FILLER_0_23_293
*620 FILLER_0_23_3
*621 FILLER_0_23_305
*622 FILLER_0_23_317
*623 FILLER_0_23_329
*624 FILLER_0_23_39
*625 FILLER_0_23_51
*626 FILLER_0_23_55
*627 FILLER_0_23_57
*628 FILLER_0_23_69
*629 FILLER_0_23_81
*630 FILLER_0_23_93
*631 FILLER_0_24_109
*632 FILLER_0_24_121
*633 FILLER_0_24_133
*634 FILLER_0_24_139
*635 FILLER_0_24_141
*636 FILLER_0_24_15
*637 FILLER_0_24_153
*638 FILLER_0_24_165
*639 FILLER_0_24_177
*640 FILLER_0_24_189
*641 FILLER_0_24_195
*642 FILLER_0_24_197
*643 FILLER_0_24_209
*644 FILLER_0_24_221
*645 FILLER_0_24_233
*646 FILLER_0_24_245
*647 FILLER_0_24_251
*648 FILLER_0_24_253
*649 FILLER_0_24_265
*650 FILLER_0_24_27
*651 FILLER_0_24_277
*652 FILLER_0_24_289
*653 FILLER_0_24_29
*654 FILLER_0_24_3
*655 FILLER_0_24_301
*656 FILLER_0_24_307
*657 FILLER_0_24_309
*658 FILLER_0_24_321
*659 FILLER_0_24_333
*660 FILLER_0_24_41
*661 FILLER_0_24_53
*662 FILLER_0_24_65
*663 FILLER_0_24_77
*664 FILLER_0_24_83
*665 FILLER_0_24_85
*666 FILLER_0_24_97
*667 FILLER_0_25_105
*668 FILLER_0_25_111
*669 FILLER_0_25_113
*670 FILLER_0_25_125
*671 FILLER_0_25_137
*672 FILLER_0_25_149
*673 FILLER_0_25_15
*674 FILLER_0_25_161
*675 FILLER_0_25_167
*676 FILLER_0_25_169
*677 FILLER_0_25_181
*678 FILLER_0_25_193
*679 FILLER_0_25_205
*680 FILLER_0_25_217
*681 FILLER_0_25_223
*682 FILLER_0_25_225
*683 FILLER_0_25_237
*684 FILLER_0_25_249
*685 FILLER_0_25_261
*686 FILLER_0_25_27
*687 FILLER_0_25_273
*688 FILLER_0_25_279
*689 FILLER_0_25_281
*690 FILLER_0_25_293
*691 FILLER_0_25_3
*692 FILLER_0_25_305
*693 FILLER_0_25_317
*694 FILLER_0_25_329
*695 FILLER_0_25_39
*696 FILLER_0_25_51
*697 FILLER_0_25_55
*698 FILLER_0_25_57
*699 FILLER_0_25_69
*700 FILLER_0_25_81
*701 FILLER_0_25_93
*702 FILLER_0_26_109
*703 FILLER_0_26_121
*704 FILLER_0_26_133
*705 FILLER_0_26_139
*706 FILLER_0_26_141
*707 FILLER_0_26_15
*708 FILLER_0_26_153
*709 FILLER_0_26_165
*710 FILLER_0_26_177
*711 FILLER_0_26_189
*712 FILLER_0_26_195
*713 FILLER_0_26_197
*714 FILLER_0_26_209
*715 FILLER_0_26_221
*716 FILLER_0_26_233
*717 FILLER_0_26_245
*718 FILLER_0_26_251
*719 FILLER_0_26_253
*720 FILLER_0_26_265
*721 FILLER_0_26_27
*722 FILLER_0_26_277
*723 FILLER_0_26_289
*724 FILLER_0_26_29
*725 FILLER_0_26_3
*726 FILLER_0_26_301
*727 FILLER_0_26_307
*728 FILLER_0_26_309
*729 FILLER_0_26_321
*730 FILLER_0_26_333
*731 FILLER_0_26_41
*732 FILLER_0_26_53
*733 FILLER_0_26_65
*734 FILLER_0_26_77
*735 FILLER_0_26_83
*736 FILLER_0_26_85
*737 FILLER_0_26_97
*738 FILLER_0_27_105
*739 FILLER_0_27_111
*740 FILLER_0_27_113
*741 FILLER_0_27_125
*742 FILLER_0_27_137
*743 FILLER_0_27_149
*744 FILLER_0_27_15
*745 FILLER_0_27_161
*746 FILLER_0_27_167
*747 FILLER_0_27_169
*748 FILLER_0_27_181
*749 FILLER_0_27_193
*750 FILLER_0_27_205
*751 FILLER_0_27_217
*752 FILLER_0_27_223
*753 FILLER_0_27_225
*754 FILLER_0_27_237
*755 FILLER_0_27_249
*756 FILLER_0_27_261
*757 FILLER_0_27_27
*758 FILLER_0_27_273
*759 FILLER_0_27_279
*760 FILLER_0_27_281
*761 FILLER_0_27_293
*762 FILLER_0_27_3
*763 FILLER_0_27_305
*764 FILLER_0_27_317
*765 FILLER_0_27_329
*766 FILLER_0_27_39
*767 FILLER_0_27_51
*768 FILLER_0_27_55
*769 FILLER_0_27_57
*770 FILLER_0_27_69
*771 FILLER_0_27_81
*772 FILLER_0_27_93
*773 FILLER_0_28_109
*774 FILLER_0_28_121
*775 FILLER_0_28_133
*776 FILLER_0_28_139
*777 FILLER_0_28_141
*778 FILLER_0_28_15
*779 FILLER_0_28_153
*780 FILLER_0_28_165
*781 FILLER_0_28_177
*782 FILLER_0_28_189
*783 FILLER_0_28_195
*784 FILLER_0_28_197
*785 FILLER_0_28_209
*786 FILLER_0_28_221
*787 FILLER_0_28_233
*788 FILLER_0_28_245
*789 FILLER_0_28_251
*790 FILLER_0_28_253
*791 FILLER_0_28_265
*792 FILLER_0_28_27
*793 FILLER_0_28_277
*794 FILLER_0_28_289
*795 FILLER_0_28_29
*796 FILLER_0_28_3
*797 FILLER_0_28_301
*798 FILLER_0_28_307
*799 FILLER_0_28_309
*800 FILLER_0_28_321
*801 FILLER_0_28_333
*802 FILLER_0_28_41
*803 FILLER_0_28_53
*804 FILLER_0_28_65
*805 FILLER_0_28_77
*806 FILLER_0_28_83
*807 FILLER_0_28_85
*808 FILLER_0_28_97
*809 FILLER_0_29_105
*810 FILLER_0_29_111
*811 FILLER_0_29_113
*812 FILLER_0_29_125
*813 FILLER_0_29_137
*814 FILLER_0_29_149
*815 FILLER_0_29_15
*816 FILLER_0_29_161
*817 FILLER_0_29_167
*818 FILLER_0_29_169
*819 FILLER_0_29_181
*820 FILLER_0_29_193
*821 FILLER_0_29_205
*822 FILLER_0_29_217
*823 FILLER_0_29_223
*824 FILLER_0_29_225
*825 FILLER_0_29_237
*826 FILLER_0_29_249
*827 FILLER_0_29_261
*828 FILLER_0_29_27
*829 FILLER_0_29_273
*830 FILLER_0_29_279
*831 FILLER_0_29_281
*832 FILLER_0_29_293
*833 FILLER_0_29_3
*834 FILLER_0_29_305
*835 FILLER_0_29_317
*836 FILLER_0_29_329
*837 FILLER_0_29_39
*838 FILLER_0_29_51
*839 FILLER_0_29_55
*840 FILLER_0_29_57
*841 FILLER_0_29_69
*842 FILLER_0_29_81
*843 FILLER_0_29_93
*844 FILLER_0_2_109
*845 FILLER_0_2_121
*846 FILLER_0_2_133
*847 FILLER_0_2_139
*848 FILLER_0_2_141
*849 FILLER_0_2_15
*850 FILLER_0_2_153
*851 FILLER_0_2_165
*852 FILLER_0_2_177
*853 FILLER_0_2_189
*854 FILLER_0_2_195
*855 FILLER_0_2_197
*856 FILLER_0_2_209
*857 FILLER_0_2_221
*858 FILLER_0_2_233
*859 FILLER_0_2_245
*860 FILLER_0_2_251
*861 FILLER_0_2_253
*862 FILLER_0_2_265
*863 FILLER_0_2_27
*864 FILLER_0_2_277
*865 FILLER_0_2_289
*866 FILLER_0_2_29
*867 FILLER_0_2_3
*868 FILLER_0_2_301
*869 FILLER_0_2_307
*870 FILLER_0_2_309
*871 FILLER_0_2_321
*872 FILLER_0_2_333
*873 FILLER_0_2_41
*874 FILLER_0_2_53
*875 FILLER_0_2_65
*876 FILLER_0_2_77
*877 FILLER_0_2_83
*878 FILLER_0_2_85
*879 FILLER_0_2_97
*880 FILLER_0_30_109
*881 FILLER_0_30_121
*882 FILLER_0_30_133
*883 FILLER_0_30_139
*884 FILLER_0_30_141
*885 FILLER_0_30_15
*886 FILLER_0_30_153
*887 FILLER_0_30_165
*888 FILLER_0_30_177
*889 FILLER_0_30_189
*890 FILLER_0_30_195
*891 FILLER_0_30_197
*892 FILLER_0_30_209
*893 FILLER_0_30_221
*894 FILLER_0_30_233
*895 FILLER_0_30_245
*896 FILLER_0_30_251
*897 FILLER_0_30_253
*898 FILLER_0_30_265
*899 FILLER_0_30_27
*900 FILLER_0_30_277
*901 FILLER_0_30_289
*902 FILLER_0_30_29
*903 FILLER_0_30_3
*904 FILLER_0_30_301
*905 FILLER_0_30_307
*906 FILLER_0_30_309
*907 FILLER_0_30_321
*908 FILLER_0_30_333
*909 FILLER_0_30_41
*910 FILLER_0_30_53
*911 FILLER_0_30_65
*912 FILLER_0_30_77
*913 FILLER_0_30_83
*914 FILLER_0_30_85
*915 FILLER_0_30_97
*916 FILLER_0_31_105
*917 FILLER_0_31_111
*918 FILLER_0_31_113
*919 FILLER_0_31_125
*920 FILLER_0_31_137
*921 FILLER_0_31_149
*922 FILLER_0_31_15
*923 FILLER_0_31_161
*924 FILLER_0_31_167
*925 FILLER_0_31_169
*926 FILLER_0_31_181
*927 FILLER_0_31_193
*928 FILLER_0_31_205
*929 FILLER_0_31_217
*930 FILLER_0_31_223
*931 FILLER_0_31_225
*932 FILLER_0_31_237
*933 FILLER_0_31_249
*934 FILLER_0_31_261
*935 FILLER_0_31_27
*936 FILLER_0_31_273
*937 FILLER_0_31_279
*938 FILLER_0_31_281
*939 FILLER_0_31_293
*940 FILLER_0_31_3
*941 FILLER_0_31_305
*942 FILLER_0_31_317
*943 FILLER_0_31_329
*944 FILLER_0_31_39
*945 FILLER_0_31_51
*946 FILLER_0_31_55
*947 FILLER_0_31_57
*948 FILLER_0_31_69
*949 FILLER_0_31_81
*950 FILLER_0_31_93
*951 FILLER_0_32_109
*952 FILLER_0_32_121
*953 FILLER_0_32_133
*954 FILLER_0_32_139
*955 FILLER_0_32_141
*956 FILLER_0_32_15
*957 FILLER_0_32_153
*958 FILLER_0_32_165
*959 FILLER_0_32_177
*960 FILLER_0_32_189
*961 FILLER_0_32_195
*962 FILLER_0_32_197
*963 FILLER_0_32_209
*964 FILLER_0_32_221
*965 FILLER_0_32_233
*966 FILLER_0_32_245
*967 FILLER_0_32_251
*968 FILLER_0_32_253
*969 FILLER_0_32_265
*970 FILLER_0_32_27
*971 FILLER_0_32_277
*972 FILLER_0_32_289
*973 FILLER_0_32_29
*974 FILLER_0_32_3
*975 FILLER_0_32_301
*976 FILLER_0_32_307
*977 FILLER_0_32_309
*978 FILLER_0_32_321
*979 FILLER_0_32_333
*980 FILLER_0_32_41
*981 FILLER_0_32_53
*982 FILLER_0_32_65
*983 FILLER_0_32_77
*984 FILLER_0_32_83
*985 FILLER_0_32_85
*986 FILLER_0_32_97
*987 FILLER_0_33_105
*988 FILLER_0_33_111
*989 FILLER_0_33_113
*990 FILLER_0_33_125
*991 FILLER_0_33_137
*992 FILLER_0_33_149
*993 FILLER_0_33_15
*994 FILLER_0_33_161
*995 FILLER_0_33_167
*996 FILLER_0_33_169
*997 FILLER_0_33_181
*998 FILLER_0_33_193
*999 FILLER_0_33_205
*1000 FILLER_0_33_217
*1001 FILLER_0_33_223
*1002 FILLER_0_33_225
*1003 FILLER_0_33_237
*1004 FILLER_0_33_249
*1005 FILLER_0_33_261
*1006 FILLER_0_33_27
*1007 FILLER_0_33_273
*1008 FILLER_0_33_279
*1009 FILLER_0_33_281
*1010 FILLER_0_33_293
*1011 FILLER_0_33_3
*1012 FILLER_0_33_305
*1013 FILLER_0_33_317
*1014 FILLER_0_33_329
*1015 FILLER_0_33_39
*1016 FILLER_0_33_51
*1017 FILLER_0_33_55
*1018 FILLER_0_33_57
*1019 FILLER_0_33_69
*1020 FILLER_0_33_81
*1021 FILLER_0_33_93
*1022 FILLER_0_34_109
*1023 FILLER_0_34_121
*1024 FILLER_0_34_133
*1025 FILLER_0_34_139
*1026 FILLER_0_34_141
*1027 FILLER_0_34_15
*1028 FILLER_0_34_153
*1029 FILLER_0_34_165
*1030 FILLER_0_34_177
*1031 FILLER_0_34_189
*1032 FILLER_0_34_195
*1033 FILLER_0_34_197
*1034 FILLER_0_34_209
*1035 FILLER_0_34_221
*1036 FILLER_0_34_233
*1037 FILLER_0_34_245
*1038 FILLER_0_34_251
*1039 FILLER_0_34_253
*1040 FILLER_0_34_265
*1041 FILLER_0_34_27
*1042 FILLER_0_34_277
*1043 FILLER_0_34_289
*1044 FILLER_0_34_29
*1045 FILLER_0_34_3
*1046 FILLER_0_34_301
*1047 FILLER_0_34_307
*1048 FILLER_0_34_309
*1049 FILLER_0_34_321
*1050 FILLER_0_34_333
*1051 FILLER_0_34_41
*1052 FILLER_0_34_53
*1053 FILLER_0_34_65
*1054 FILLER_0_34_77
*1055 FILLER_0_34_83
*1056 FILLER_0_34_85
*1057 FILLER_0_34_97
*1058 FILLER_0_35_105
*1059 FILLER_0_35_111
*1060 FILLER_0_35_113
*1061 FILLER_0_35_125
*1062 FILLER_0_35_137
*1063 FILLER_0_35_149
*1064 FILLER_0_35_15
*1065 FILLER_0_35_161
*1066 FILLER_0_35_167
*1067 FILLER_0_35_169
*1068 FILLER_0_35_181
*1069 FILLER_0_35_193
*1070 FILLER_0_35_205
*1071 FILLER_0_35_217
*1072 FILLER_0_35_223
*1073 FILLER_0_35_225
*1074 FILLER_0_35_237
*1075 FILLER_0_35_249
*1076 FILLER_0_35_261
*1077 FILLER_0_35_27
*1078 FILLER_0_35_273
*1079 FILLER_0_35_279
*1080 FILLER_0_35_281
*1081 FILLER_0_35_293
*1082 FILLER_0_35_3
*1083 FILLER_0_35_305
*1084 FILLER_0_35_317
*1085 FILLER_0_35_329
*1086 FILLER_0_35_39
*1087 FILLER_0_35_51
*1088 FILLER_0_35_55
*1089 FILLER_0_35_57
*1090 FILLER_0_35_69
*1091 FILLER_0_35_81
*1092 FILLER_0_35_93
*1093 FILLER_0_36_109
*1094 FILLER_0_36_121
*1095 FILLER_0_36_133
*1096 FILLER_0_36_139
*1097 FILLER_0_36_141
*1098 FILLER_0_36_15
*1099 FILLER_0_36_153
*1100 FILLER_0_36_163
*1101 FILLER_0_36_172
*1102 FILLER_0_36_180
*1103 FILLER_0_36_184
*1104 FILLER_0_36_240
*1105 FILLER_0_36_253
*1106 FILLER_0_36_265
*1107 FILLER_0_36_27
*1108 FILLER_0_36_277
*1109 FILLER_0_36_289
*1110 FILLER_0_36_29
*1111 FILLER_0_36_3
*1112 FILLER_0_36_301
*1113 FILLER_0_36_307
*1114 FILLER_0_36_309
*1115 FILLER_0_36_321
*1116 FILLER_0_36_333
*1117 FILLER_0_36_41
*1118 FILLER_0_36_53
*1119 FILLER_0_36_65
*1120 FILLER_0_36_77
*1121 FILLER_0_36_83
*1122 FILLER_0_36_85
*1123 FILLER_0_36_97
*1124 FILLER_0_37_105
*1125 FILLER_0_37_111
*1126 FILLER_0_37_113
*1127 FILLER_0_37_125
*1128 FILLER_0_37_137
*1129 FILLER_0_37_145
*1130 FILLER_0_37_15
*1131 FILLER_0_37_169
*1132 FILLER_0_37_177
*1133 FILLER_0_37_191
*1134 FILLER_0_37_220
*1135 FILLER_0_37_225
*1136 FILLER_0_37_248
*1137 FILLER_0_37_260
*1138 FILLER_0_37_27
*1139 FILLER_0_37_272
*1140 FILLER_0_37_281
*1141 FILLER_0_37_293
*1142 FILLER_0_37_3
*1143 FILLER_0_37_305
*1144 FILLER_0_37_317
*1145 FILLER_0_37_329
*1146 FILLER_0_37_39
*1147 FILLER_0_37_51
*1148 FILLER_0_37_55
*1149 FILLER_0_37_57
*1150 FILLER_0_37_69
*1151 FILLER_0_37_81
*1152 FILLER_0_37_93
*1153 FILLER_0_38_10
*1154 FILLER_0_38_102
*1155 FILLER_0_38_106
*1156 FILLER_0_38_110
*1157 FILLER_0_38_113
*1158 FILLER_0_38_118
*1159 FILLER_0_38_122
*1160 FILLER_0_38_126
*1161 FILLER_0_38_138
*1162 FILLER_0_38_14
*1163 FILLER_0_38_145
*1164 FILLER_0_38_151
*1165 FILLER_0_38_161
*1166 FILLER_0_38_167
*1167 FILLER_0_38_169
*1168 FILLER_0_38_173
*1169 FILLER_0_38_18
*1170 FILLER_0_38_186
*1171 FILLER_0_38_190
*1172 FILLER_0_38_217
*1173 FILLER_0_38_22
*1174 FILLER_0_38_223
*1175 FILLER_0_38_241
*1176 FILLER_0_38_249
*1177 FILLER_0_38_273
*1178 FILLER_0_38_279
*1179 FILLER_0_38_281
*1180 FILLER_0_38_293
*1181 FILLER_0_38_305
*1182 FILLER_0_38_309
*1183 FILLER_0_38_315
*1184 FILLER_0_38_32
*1185 FILLER_0_38_326
*1186 FILLER_0_38_334
*1187 FILLER_0_38_38
*1188 FILLER_0_38_42
*1189 FILLER_0_38_46
*1190 FILLER_0_38_50
*1191 FILLER_0_38_54
*1192 FILLER_0_38_57
*1193 FILLER_0_38_6
*1194 FILLER_0_38_62
*1195 FILLER_0_38_66
*1196 FILLER_0_38_70
*1197 FILLER_0_38_74
*1198 FILLER_0_38_78
*1199 FILLER_0_38_88
*1200 FILLER_0_38_94
*1201 FILLER_0_38_98
*1202 FILLER_0_3_105
*1203 FILLER_0_3_111
*1204 FILLER_0_3_113
*1205 FILLER_0_3_125
*1206 FILLER_0_3_137
*1207 FILLER_0_3_149
*1208 FILLER_0_3_15
*1209 FILLER_0_3_161
*1210 FILLER_0_3_167
*1211 FILLER_0_3_169
*1212 FILLER_0_3_181
*1213 FILLER_0_3_193
*1214 FILLER_0_3_205
*1215 FILLER_0_3_217
*1216 FILLER_0_3_223
*1217 FILLER_0_3_225
*1218 FILLER_0_3_237
*1219 FILLER_0_3_249
*1220 FILLER_0_3_261
*1221 FILLER_0_3_27
*1222 FILLER_0_3_273
*1223 FILLER_0_3_279
*1224 FILLER_0_3_281
*1225 FILLER_0_3_293
*1226 FILLER_0_3_3
*1227 FILLER_0_3_305
*1228 FILLER_0_3_317
*1229 FILLER_0_3_329
*1230 FILLER_0_3_39
*1231 FILLER_0_3_51
*1232 FILLER_0_3_55
*1233 FILLER_0_3_57
*1234 FILLER_0_3_69
*1235 FILLER_0_3_81
*1236 FILLER_0_3_93
*1237 FILLER_0_4_109
*1238 FILLER_0_4_121
*1239 FILLER_0_4_133
*1240 FILLER_0_4_139
*1241 FILLER_0_4_141
*1242 FILLER_0_4_15
*1243 FILLER_0_4_153
*1244 FILLER_0_4_165
*1245 FILLER_0_4_177
*1246 FILLER_0_4_189
*1247 FILLER_0_4_195
*1248 FILLER_0_4_197
*1249 FILLER_0_4_209
*1250 FILLER_0_4_221
*1251 FILLER_0_4_233
*1252 FILLER_0_4_245
*1253 FILLER_0_4_251
*1254 FILLER_0_4_253
*1255 FILLER_0_4_265
*1256 FILLER_0_4_27
*1257 FILLER_0_4_277
*1258 FILLER_0_4_289
*1259 FILLER_0_4_29
*1260 FILLER_0_4_3
*1261 FILLER_0_4_301
*1262 FILLER_0_4_307
*1263 FILLER_0_4_309
*1264 FILLER_0_4_321
*1265 FILLER_0_4_333
*1266 FILLER_0_4_41
*1267 FILLER_0_4_53
*1268 FILLER_0_4_65
*1269 FILLER_0_4_77
*1270 FILLER_0_4_83
*1271 FILLER_0_4_85
*1272 FILLER_0_4_97
*1273 FILLER_0_5_105
*1274 FILLER_0_5_111
*1275 FILLER_0_5_113
*1276 FILLER_0_5_125
*1277 FILLER_0_5_137
*1278 FILLER_0_5_149
*1279 FILLER_0_5_15
*1280 FILLER_0_5_161
*1281 FILLER_0_5_167
*1282 FILLER_0_5_169
*1283 FILLER_0_5_181
*1284 FILLER_0_5_193
*1285 FILLER_0_5_205
*1286 FILLER_0_5_217
*1287 FILLER_0_5_223
*1288 FILLER_0_5_225
*1289 FILLER_0_5_237
*1290 FILLER_0_5_249
*1291 FILLER_0_5_261
*1292 FILLER_0_5_27
*1293 FILLER_0_5_273
*1294 FILLER_0_5_279
*1295 FILLER_0_5_281
*1296 FILLER_0_5_293
*1297 FILLER_0_5_3
*1298 FILLER_0_5_305
*1299 FILLER_0_5_317
*1300 FILLER_0_5_329
*1301 FILLER_0_5_39
*1302 FILLER_0_5_51
*1303 FILLER_0_5_55
*1304 FILLER_0_5_57
*1305 FILLER_0_5_69
*1306 FILLER_0_5_81
*1307 FILLER_0_5_93
*1308 FILLER_0_6_109
*1309 FILLER_0_6_121
*1310 FILLER_0_6_133
*1311 FILLER_0_6_139
*1312 FILLER_0_6_141
*1313 FILLER_0_6_15
*1314 FILLER_0_6_153
*1315 FILLER_0_6_165
*1316 FILLER_0_6_177
*1317 FILLER_0_6_189
*1318 FILLER_0_6_195
*1319 FILLER_0_6_197
*1320 FILLER_0_6_209
*1321 FILLER_0_6_221
*1322 FILLER_0_6_233
*1323 FILLER_0_6_245
*1324 FILLER_0_6_251
*1325 FILLER_0_6_253
*1326 FILLER_0_6_265
*1327 FILLER_0_6_27
*1328 FILLER_0_6_277
*1329 FILLER_0_6_289
*1330 FILLER_0_6_29
*1331 FILLER_0_6_3
*1332 FILLER_0_6_301
*1333 FILLER_0_6_307
*1334 FILLER_0_6_309
*1335 FILLER_0_6_321
*1336 FILLER_0_6_333
*1337 FILLER_0_6_41
*1338 FILLER_0_6_53
*1339 FILLER_0_6_65
*1340 FILLER_0_6_77
*1341 FILLER_0_6_83
*1342 FILLER_0_6_85
*1343 FILLER_0_6_97
*1344 FILLER_0_7_105
*1345 FILLER_0_7_111
*1346 FILLER_0_7_113
*1347 FILLER_0_7_125
*1348 FILLER_0_7_137
*1349 FILLER_0_7_149
*1350 FILLER_0_7_15
*1351 FILLER_0_7_161
*1352 FILLER_0_7_167
*1353 FILLER_0_7_169
*1354 FILLER_0_7_181
*1355 FILLER_0_7_193
*1356 FILLER_0_7_205
*1357 FILLER_0_7_217
*1358 FILLER_0_7_223
*1359 FILLER_0_7_225
*1360 FILLER_0_7_237
*1361 FILLER_0_7_249
*1362 FILLER_0_7_261
*1363 FILLER_0_7_27
*1364 FILLER_0_7_273
*1365 FILLER_0_7_279
*1366 FILLER_0_7_281
*1367 FILLER_0_7_293
*1368 FILLER_0_7_3
*1369 FILLER_0_7_305
*1370 FILLER_0_7_317
*1371 FILLER_0_7_329
*1372 FILLER_0_7_39
*1373 FILLER_0_7_51
*1374 FILLER_0_7_55
*1375 FILLER_0_7_57
*1376 FILLER_0_7_69
*1377 FILLER_0_7_81
*1378 FILLER_0_7_93
*1379 FILLER_0_8_109
*1380 FILLER_0_8_121
*1381 FILLER_0_8_133
*1382 FILLER_0_8_139
*1383 FILLER_0_8_141
*1384 FILLER_0_8_15
*1385 FILLER_0_8_153
*1386 FILLER_0_8_165
*1387 FILLER_0_8_177
*1388 FILLER_0_8_189
*1389 FILLER_0_8_195
*1390 FILLER_0_8_197
*1391 FILLER_0_8_209
*1392 FILLER_0_8_221
*1393 FILLER_0_8_233
*1394 FILLER_0_8_245
*1395 FILLER_0_8_251
*1396 FILLER_0_8_253
*1397 FILLER_0_8_265
*1398 FILLER_0_8_27
*1399 FILLER_0_8_277
*1400 FILLER_0_8_289
*1401 FILLER_0_8_29
*1402 FILLER_0_8_3
*1403 FILLER_0_8_301
*1404 FILLER_0_8_307
*1405 FILLER_0_8_309
*1406 FILLER_0_8_321
*1407 FILLER_0_8_333
*1408 FILLER_0_8_41
*1409 FILLER_0_8_53
*1410 FILLER_0_8_65
*1411 FILLER_0_8_77
*1412 FILLER_0_8_83
*1413 FILLER_0_8_85
*1414 FILLER_0_8_97
*1415 FILLER_0_9_105
*1416 FILLER_0_9_111
*1417 FILLER_0_9_113
*1418 FILLER_0_9_125
*1419 FILLER_0_9_137
*1420 FILLER_0_9_149
*1421 FILLER_0_9_15
*1422 FILLER_0_9_161
*1423 FILLER_0_9_167
*1424 FILLER_0_9_169
*1425 FILLER_0_9_181
*1426 FILLER_0_9_193
*1427 FILLER_0_9_205
*1428 FILLER_0_9_217
*1429 FILLER_0_9_223
*1430 FILLER_0_9_225
*1431 FILLER_0_9_237
*1432 FILLER_0_9_249
*1433 FILLER_0_9_261
*1434 FILLER_0_9_27
*1435 FILLER_0_9_273
*1436 FILLER_0_9_279
*1437 FILLER_0_9_281
*1438 FILLER_0_9_293
*1439 FILLER_0_9_3
*1440 FILLER_0_9_305
*1441 FILLER_0_9_317
*1442 FILLER_0_9_329
*1443 FILLER_0_9_39
*1444 FILLER_0_9_51
*1445 FILLER_0_9_55
*1446 FILLER_0_9_57
*1447 FILLER_0_9_69
*1448 FILLER_0_9_81
*1449 FILLER_0_9_93
*1450 PHY_EDGE_ROW_0_Left_39
*1451 PHY_EDGE_ROW_0_Right_0
*1452 PHY_EDGE_ROW_10_Left_49
*1453 PHY_EDGE_ROW_10_Right_10
*1454 PHY_EDGE_ROW_11_Left_50
*1455 PHY_EDGE_ROW_11_Right_11
*1456 PHY_EDGE_ROW_12_Left_51