*SPEF "ieee 1481-1999"
*DESIGN "tt_um_QIF_8bit"
*DATE "13:45:34 Wednesday April 10, 2024"
*VENDOR "The OpenROAD Project"
*PROGRAM "OpenROAD"
*VERSION "0889970d1790a2617e69f253221b8bd7626e51dc"
*DESIGN_FLOW "NAME_SCOPE LOCAL" "PIN_CAP NONE"
*DIVIDER /
*DELIMITER :
*BUS_DELIMITER []
*T_UNIT 1 NS
*C_UNIT 1 PF
*R_UNIT 1 OHM
*L_UNIT 1 HENRY

*NAME_MAP
*3 clk
*4 ena
*5 rst_n
*6 ui_in[0]
*7 ui_in[1]
*8 ui_in[2]
*9 ui_in[3]
*10 ui_in[4]
*11 ui_in[5]
*12 ui_in[6]
*13 ui_in[7]
*14 uio_in[0]
*15 uio_in[1]
*16 uio_in[2]
*17 uio_in[3]
*18 uio_in[4]
*19 uio_in[5]
*20 uio_in[6]
*21 uio_in[7]
*22 net23
*23 net8
*24 net9
*25 net10
*26 net11
*27 net12
*28 net13
*29 net14
*30 net15
*31 net16
*32 net17
*33 net18
*34 net19
*35 net20
*36 net21
*37 net22
*38 uo_out[0]
*39 uo_out[1]
*40 uo_out[2]
*41 uo_out[3]
*42 uo_out[4]
*43 uo_out[5]
*44 uo_out[6]
*45 uo_out[7]
*46 _000_
*47 _001_
*48 _002_
*49 _003_
*50 _004_
*51 _005_
*52 _006_
*53 _007_
*54 _008_
*55 _009_
*56 _010_
*57 _011_
*58 _012_
*59 _013_
*60 _014_
*61 _015_
*62 _016_
*63 _017_
*64 _018_
*65 _019_
*66 _020_
*67 _021_
*68 _022_
*69 _023_
*70 _024_
*71 _025_
*72 _026_
*73 _027_
*74 _028_
*75 _029_
*76 _030_
*77 _031_
*78 _032_
*79 _033_
*80 _034_
*81 _035_
*82 _036_
*83 _037_
*84 _038_
*85 _039_
*86 _040_
*87 _041_
*88 _042_
*89 _043_
*90 _044_
*91 _045_
*92 _046_
*93 _047_
*94 _048_
*95 _049_
*96 _050_
*97 _051_
*98 _052_
*99 _053_
*100 _054_
*101 _055_
*102 _056_
*103 _057_
*104 _058_
*105 _059_
*106 _060_
*107 _061_
*108 _062_
*109 _063_
*110 _064_
*111 _065_
*112 _066_
*113 _067_
*114 _068_
*115 _069_
*116 _070_
*117 _071_
*118 _072_
*119 _073_
*120 _074_
*121 _075_
*122 _076_
*123 _077_
*124 _078_
*125 _079_
*126 _080_
*127 _081_
*128 _082_
*129 _083_
*130 _084_
*131 _085_
*132 _086_
*133 _087_
*134 _088_
*135 _089_
*136 _090_
*137 _091_
*138 _092_
*139 _093_
*140 _094_
*141 _095_
*142 _096_
*143 _097_
*144 _098_
*145 _099_
*146 _100_
*147 _101_
*148 _102_
*149 _103_
*150 _104_
*151 _105_
*152 _106_
*153 _107_
*154 _108_
*155 _109_
*156 _110_
*157 clknet_0_clk
*158 clknet_1_0__leaf_clk
*159 clknet_1_1__leaf_clk
*160 net1
*161 net2
*162 net3
*163 net4
*164 net5
*165 net6
*166 net7
*167 FILLER_0_0_109
*168 FILLER_0_0_113
*169 FILLER_0_0_125
*170 FILLER_0_0_137
*171 FILLER_0_0_141
*172 FILLER_0_0_15
*173 FILLER_0_0_153
*174 FILLER_0_0_165
*175 FILLER_0_0_169
*176 FILLER_0_0_181
*177 FILLER_0_0_193
*178 FILLER_0_0_197
*179 FILLER_0_0_209
*180 FILLER_0_0_221
*181 FILLER_0_0_225
*182 FILLER_0_0_237
*183 FILLER_0_0_249
*184 FILLER_0_0_253
*185 FILLER_0_0_265
*186 FILLER_0_0_27
*187 FILLER_0_0_277
*188 FILLER_0_0_281
*189 FILLER_0_0_29
*190 FILLER_0_0_293
*191 FILLER_0_0_3
*192 FILLER_0_0_305
*193 FILLER_0_0_309
*194 FILLER_0_0_321
*195 FILLER_0_0_333
*196 FILLER_0_0_41
*197 FILLER_0_0_53
*198 FILLER_0_0_57
*199 FILLER_0_0_69
*200 FILLER_0_0_81
*201 FILLER_0_0_85
*202 FILLER_0_0_97
*203 FILLER_0_10_109
*204 FILLER_0_10_121
*205 FILLER_0_10_133
*206 FILLER_0_10_139
*207 FILLER_0_10_141
*208 FILLER_0_10_15
*209 FILLER_0_10_153
*210 FILLER_0_10_165
*211 FILLER_0_10_177
*212 FILLER_0_10_189
*213 FILLER_0_10_195
*214 FILLER_0_10_197
*215 FILLER_0_10_209
*216 FILLER_0_10_221
*217 FILLER_0_10_233
*218 FILLER_0_10_245
*219 FILLER_0_10_251
*220 FILLER_0_10_253
*221 FILLER_0_10_265
*222 FILLER_0_10_27
*223 FILLER_0_10_277
*224 FILLER_0_10_289
*225 FILLER_0_10_29
*226 FILLER_0_10_3
*227 FILLER_0_10_301
*228 FILLER_0_10_307
*229 FILLER_0_10_309
*230 FILLER_0_10_321
*231 FILLER_0_10_333
*232 FILLER_0_10_41
*233 FILLER_0_10_53
*234 FILLER_0_10_65
*235 FILLER_0_10_77
*236 FILLER_0_10_83
*237 FILLER_0_10_85
*238 FILLER_0_10_97
*239 FILLER_0_11_105
*240 FILLER_0_11_111
*241 FILLER_0_11_113
*242 FILLER_0_11_125
*243 FILLER_0_11_137
*244 FILLER_0_11_149
*245 FILLER_0_11_15
*246 FILLER_0_11_161
*247 FILLER_0_11_167
*248 FILLER_0_11_169
*249 FILLER_0_11_181
*250 FILLER_0_11_193
*251 FILLER_0_11_205
*252 FILLER_0_11_217
*253 FILLER_0_11_223
*254 FILLER_0_11_225
*255 FILLER_0_11_237
*256 FILLER_0_11_249
*257 FILLER_0_11_261
*258 FILLER_0_11_27
*259 FILLER_0_11_273
*260 FILLER_0_11_279
*261 FILLER_0_11_281
*262 FILLER_0_11_293
*263 FILLER_0_11_3
*264 FILLER_0_11_305
*265 FILLER_0_11_317
*266 FILLER_0_11_329
*267 FILLER_0_11_39
*268 FILLER_0_11_51
*269 FILLER_0_11_55
*270 FILLER_0_11_57
*271 FILLER_0_11_69
*272 FILLER_0_11_81
*273 FILLER_0_11_93
*274 FILLER_0_12_109
*275 FILLER_0_12_121
*276 FILLER_0_12_133
*277 FILLER_0_12_139
*278 FILLER_0_12_141
*279 FILLER_0_12_15
*280 FILLER_0_12_153
*281 FILLER_0_12_165
*282 FILLER_0_12_177
*283 FILLER_0_12_189
*284 FILLER_0_12_195
*285 FILLER_0_12_197
*286 FILLER_0_12_209
*287 FILLER_0_12_221
*288 FILLER_0_12_233
*289 FILLER_0_12_245
*290 FILLER_0_12_251
*291 FILLER_0_12_253
*292 FILLER_0_12_265
*293 FILLER_0_12_27
*294 FILLER_0_12_277
*295 FILLER_0_12_289
*296 FILLER_0_12_29
*297 FILLER_0_12_3
*298 FILLER_0_12_301
*299 FILLER_0_12_307
*300 FILLER_0_12_309
*301 FILLER_0_12_321
*302 FILLER_0_12_333
*303 FILLER_0_12_41
*304 FILLER_0_12_53
*305 FILLER_0_12_65
*306 FILLER_0_12_77
*307 FILLER_0_12_83
*308 FILLER_0_12_85
*309 FILLER_0_12_97
*310 FILLER_0_13_105
*311 FILLER_0_13_111
*312 FILLER_0_13_113
*313 FILLER_0_13_125
*314 FILLER_0_13_137
*315 FILLER_0_13_149
*316 FILLER_0_13_15
*317 FILLER_0_13_161
*318 FILLER_0_13_167
*319 FILLER_0_13_169
*320 FILLER_0_13_181
*321 FILLER_0_13_193
*322 FILLER_0_13_205
*323 FILLER_0_13_217
*324 FILLER_0_13_223
*325 FILLER_0_13_225
*326 FILLER_0_13_237
*327 FILLER_0_13_249
*328 FILLER_0_13_261
*329 FILLER_0_13_27
*330 FILLER_0_13_273
*331 FILLER_0_13_279
*332 FILLER_0_13_281
*333 FILLER_0_13_293
*334 FILLER_0_13_3
*335 FILLER_0_13_305
*336 FILLER_0_13_317
*337 FILLER_0_13_329
*338 FILLER_0_13_39
*339 FILLER_0_13_51
*340 FILLER_0_13_55
*341 FILLER_0_13_57
*342 FILLER_0_13_69
*343 FILLER_0_13_81
*344 FILLER_0_13_93
*345 FILLER_0_14_109
*346 FILLER_0_14_121
*347 FILLER_0_14_133
*348 FILLER_0_14_139
*349 FILLER_0_14_141
*350 FILLER_0_14_15
*351 FILLER_0_14_153
*352 FILLER_0_14_165
*353 FILLER_0_14_177
*354 FILLER_0_14_189
*355 FILLER_0_14_195
*356 FILLER_0_14_197
*357 FILLER_0_14_209
*358 FILLER_0_14_221
*359 FILLER_0_14_233
*360 FILLER_0_14_245
*361 FILLER_0_14_251
*362 FILLER_0_14_253
*363 FILLER_0_14_265
*364 FILLER_0_14_27
*365 FILLER_0_14_277
*366 FILLER_0_14_289
*367 FILLER_0_14_29
*368 FILLER_0_14_3
*369 FILLER_0_14_301
*370 FILLER_0_14_307
*371 FILLER_0_14_309
*372 FILLER_0_14_321
*373 FILLER_0_14_333
*374 FILLER_0_14_41
*375 FILLER_0_14_53
*376 FILLER_0_14_65
*377 FILLER_0_14_77
*378 FILLER_0_14_83
*379 FILLER_0_14_85
*380 FILLER_0_14_97
*381 FILLER_0_15_105
*382 FILLER_0_15_111
*383 FILLER_0_15_113
*384 FILLER_0_15_125
*385 FILLER_0_15_137
*386 FILLER_0_15_149
*387 FILLER_0_15_15
*388 FILLER_0_15_161
*389 FILLER_0_15_167
*390 FILLER_0_15_169
*391 FILLER_0_15_181
*392 FILLER_0_15_193
*393 FILLER_0_15_205
*394 FILLER_0_15_217
*395 FILLER_0_15_223
*396 FILLER_0_15_225
*397 FILLER_0_15_237
*398 FILLER_0_15_249
*399 FILLER_0_15_261
*400 FILLER_0_15_27
*401 FILLER_0_15_273
*402 FILLER_0_15_279
*403 FILLER_0_15_281
*404 FILLER_0_15_293
*405 FILLER_0_15_3
*406 FILLER_0_15_305
*407 FILLER_0_15_317
*408 FILLER_0_15_329
*409 FILLER_0_15_39
*410 FILLER_0_15_51
*411 FILLER_0_15_55
*412 FILLER_0_15_57
*413 FILLER_0_15_69
*414 FILLER_0_15_81
*415 FILLER_0_15_93
*416 FILLER_0_16_109
*417 FILLER_0_16_121
*418 FILLER_0_16_133
*419 FILLER_0_16_139
*420 FILLER_0_16_141
*421 FILLER_0_16_15
*422 FILLER_0_16_153
*423 FILLER_0_16_165
*424 FILLER_0_16_177
*425 FILLER_0_16_189
*426 FILLER_0_16_195
*427 FILLER_0_16_197
*428 FILLER_0_16_209
*429 FILLER_0_16_221
*430 FILLER_0_16_233
*431 FILLER_0_16_245
*432 FILLER_0_16_251
*433 FILLER_0_16_253
*434 FILLER_0_16_265
*435 FILLER_0_16_27
*436 FILLER_0_16_277
*437 FILLER_0_16_289
*438 FILLER_0_16_29
*439 FILLER_0_16_3
*440 FILLER_0_16_301
*441 FILLER_0_16_307
*442 FILLER_0_16_309
*443 FILLER_0_16_321
*444 FILLER_0_16_333
*445 FILLER_0_16_41
*446 FILLER_0_16_53
*447 FILLER_0_16_65
*448 FILLER_0_16_77
*449 FILLER_0_16_83
*450 FILLER_0_16_85
*451 FILLER_0_16_97
*452 FILLER_0_17_105
*453 FILLER_0_17_111
*454 FILLER_0_17_113
*455 FILLER_0_17_125
*456 FILLER_0_17_137
*457 FILLER_0_17_149
*458 FILLER_0_17_15
*459 FILLER_0_17_161
*460 FILLER_0_17_167
*461 FILLER_0_17_169
*462 FILLER_0_17_181
*463 FILLER_0_17_193
*464 FILLER_0_17_205
*465 FILLER_0_17_217
*466 FILLER_0_17_223
*467 FILLER_0_17_225
*468 FILLER_0_17_237
*469 FILLER_0_17_249
*470 FILLER_0_17_261
*471 FILLER_0_17_27
*472 FILLER_0_17_273
*473 FILLER_0_17_279
*474 FILLER_0_17_281
*475 FILLER_0_17_293
*476 FILLER_0_17_3
*477 FILLER_0_17_305
*478 FILLER_0_17_317
*479 FILLER_0_17_329
*480 FILLER_0_17_39
*481 FILLER_0_17_51
*482 FILLER_0_17_55
*483 FILLER_0_17_57
*484 FILLER_0_17_69
*485 FILLER_0_17_81
*486 FILLER_0_17_93
*487 FILLER_0_18_109
*488 FILLER_0_18_121
*489 FILLER_0_18_133
*490 FILLER_0_18_139
*491 FILLER_0_18_141
*492 FILLER_0_18_15
*493 FILLER_0_18_153
*494 FILLER_0_18_165
*495 FILLER_0_18_177
*496 FILLER_0_18_189
*497 FILLER_0_18_195
*498 FILLER_0_18_197
*499 FILLER_0_18_209
*500 FILLER_0_18_221
*501 FILLER_0_18_233
*502 FILLER_0_18_245
*503 FILLER_0_18_251
*504 FILLER_0_18_253
*505 FILLER_0_18_265
*506 FILLER_0_18_27
*507 FILLER_0_18_277
*508 FILLER_0_18_289
*509 FILLER_0_18_29
*510 FILLER_0_18_3
*511 FILLER_0_18_301
*512 FILLER_0_18_307
*513 FILLER_0_18_309
*514 FILLER_0_18_321
*515 FILLER_0_18_333
*516 FILLER_0_18_41
*517 FILLER_0_18_53
*518 FILLER_0_18_65
*519 FILLER_0_18_77
*520 FILLER_0_18_83
*521 FILLER_0_18_85
*522 FILLER_0_18_97
*523 FILLER_0_19_105
*524 FILLER_0_19_111
*525 FILLER_0_19_113
*526 FILLER_0_19_125
*527 FILLER_0_19_137
*528 FILLER_0_19_149
*529 FILLER_0_19_15
*530 FILLER_0_19_161
*531 FILLER_0_19_167
*532 FILLER_0_19_169
*533 FILLER_0_19_181
*534 FILLER_0_19_193
*535 FILLER_0_19_205
*536 FILLER_0_19_217
*537 FILLER_0_19_223
*538 FILLER_0_19_225
*539 FILLER_0_19_237
*540 FILLER_0_19_249
*541 FILLER_0_19_261
*542 FILLER_0_19_27
*543 FILLER_0_19_273
*544 FILLER_0_19_279
*545 FILLER_0_19_281
*546 FILLER_0_19_293
*547 FILLER_0_19_3
*548 FILLER_0_19_305
*549 FILLER_0_19_317
*550 FILLER_0_19_329
*551 FILLER_0_19_39
*552 FILLER_0_19_51
*553 FILLER_0_19_55
*554 FILLER_0_19_57
*555 FILLER_0_19_69
*556 FILLER_0_19_81
*557 FILLER_0_19_93
*558 FILLER_0_1_105
*559 FILLER_0_1_111
*560 FILLER_0_1_113
*561 FILLER_0_1_125
*562 FILLER_0_1_137
*563 FILLER_0_1_149
*564 FILLER_0_1_15
*565 FILLER_0_1_161
*566 FILLER_0_1_167
*567 FILLER_0_1_169
*568 FILLER_0_1_181
*569 FILLER_0_1_193
*570 FILLER_0_1_205
*571 FILLER_0_1_217
*572 FILLER_0_1_223
*573 FILLER_0_1_225
*574 FILLER_0_1_237
*575 FILLER_0_1_249
*576 FILLER_0_1_261
*577 FILLER_0_1_27
*578 FILLER_0_1_273
*579 FILLER_0_1_279
*580 FILLER_0_1_281
*581 FILLER_0_1_293
*582 FILLER_0_1_3
*583 FILLER_0_1_305
*584 FILLER_0_1_317
*585 FILLER_0_1_329
*586 FILLER_0_1_39
*587 FILLER_0_1_51
*588 FILLER_0_1_55
*589 FILLER_0_1_57
*590 FILLER_0_1_69
*591 FILLER_0_1_81
*592 FILLER_0_1_93
*593 FILLER_0_20_109
*594 FILLER_0_20_121
*595 FILLER_0_20_133
*596 FILLER_0_20_139
*597 FILLER_0_20_141
*598 FILLER_0_20_15
*599 FILLER_0_20_153
*600 FILLER_0_20_165
*601 FILLER_0_20_177
*602 FILLER_0_20_189
*603 FILLER_0_20_195
*604 FILLER_0_20_197
*605 FILLER_0_20_209
*606 FILLER_0_20_221
*607 FILLER_0_20_233
*608 FILLER_0_20_245
*609 FILLER_0_20_251
*610 FILLER_0_20_253
*611 FILLER_0_20_265
*612 FILLER_0_20_27
*613 FILLER_0_20_277
*614 FILLER_0_20_289
*615 FILLER_0_20_29
*616 FILLER_0_20_3
*617 FILLER_0_20_301
*618 FILLER_0_20_307
*619 FILLER_0_20_309
*620 FILLER_0_20_321
*621 FILLER_0_20_333
*622 FILLER_0_20_41
*623 FILLER_0_20_53
*624 FILLER_0_20_65
*625 FILLER_0_20_77
*626 FILLER_0_20_83
*627 FILLER_0_20_85
*628 FILLER_0_20_97
*629 FILLER_0_21_105
*630 FILLER_0_21_111
*631 FILLER_0_21_113
*632 FILLER_0_21_125
*633 FILLER_0_21_137
*634 FILLER_0_21_149
*635 FILLER_0_21_15
*636 FILLER_0_21_161
*637 FILLER_0_21_167
*638 FILLER_0_21_169
*639 FILLER_0_21_181
*640 FILLER_0_21_193
*641 FILLER_0_21_205
*642 FILLER_0_21_217
*643 FILLER_0_21_223
*644 FILLER_0_21_225
*645 FILLER_0_21_237
*646 FILLER_0_21_249
*647 FILLER_0_21_261
*648 FILLER_0_21_27
*649 FILLER_0_21_273
*650 FILLER_0_21_279
*651 FILLER_0_21_281
*652 FILLER_0_21_293
*653 FILLER_0_21_3
*654 FILLER_0_21_305
*655 FILLER_0_21_317
*656 FILLER_0_21_329
*657 FILLER_0_21_39
*658 FILLER_0_21_51
*659 FILLER_0_21_55
*660 FILLER_0_21_57
*661 FILLER_0_21_69
*662 FILLER_0_21_81
*663 FILLER_0_21_93
*664 FILLER_0_22_109
*665 FILLER_0_22_121
*666 FILLER_0_22_133
*667 FILLER_0_22_139
*668 FILLER_0_22_141
*669 FILLER_0_22_15
*670 FILLER_0_22_153
*671 FILLER_0_22_165
*672 FILLER_0_22_177
*673 FILLER_0_22_189
*674 FILLER_0_22_195
*675 FILLER_0_22_197
*676 FILLER_0_22_209
*677 FILLER_0_22_221
*678 FILLER_0_22_233
*679 FILLER_0_22_245
*680 FILLER_0_22_251
*681 FILLER_0_22_253
*682 FILLER_0_22_265
*683 FILLER_0_22_27
*684 FILLER_0_22_277
*685 FILLER_0_22_289
*686 FILLER_0_22_29
*687 FILLER_0_22_3
*688 FILLER_0_22_301
*689 FILLER_0_22_307
*690 FILLER_0_22_309
*691 FILLER_0_22_321
*692 FILLER_0_22_333
*693 FILLER_0_22_41
*694 FILLER_0_22_53
*695 FILLER_0_22_65
*696 FILLER_0_22_77
*697 FILLER_0_22_83
*698 FILLER_0_22_85
*699 FILLER_0_22_97
*700 FILLER_0_23_105
*701 FILLER_0_23_111
*702 FILLER_0_23_113
*703 FILLER_0_23_125
*704 FILLER_0_23_137
*705 FILLER_0_23_149
*706 FILLER_0_23_15
*707 FILLER_0_23_161
*708 FILLER_0_23_167
*709 FILLER_0_23_169
*710 FILLER_0_23_181
*711 FILLER_0_23_193
*712 FILLER_0_23_205
*713 FILLER_0_23_217
*714 FILLER_0_23_223
*715 FILLER_0_23_225
*716 FILLER_0_23_237
*717 FILLER_0_23_249
*718 FILLER_0_23_261
*719 FILLER_0_23_27
*720 FILLER_0_23_273
*721 FILLER_0_23_279
*722 FILLER_0_23_281
*723 FILLER_0_23_293
*724 FILLER_0_23_3
*725 FILLER_0_23_305
*726 FILLER_0_23_317
*727 FILLER_0_23_329
*728 FILLER_0_23_39
*729 FILLER_0_23_51
*730 FILLER_0_23_55
*731 FILLER_0_23_57
*732 FILLER_0_23_69
*733 FILLER_0_23_81
*734 FILLER_0_23_93
*735 FILLER_0_24_109
*736 FILLER_0_24_121
*737 FILLER_0_24_133
*738 FILLER_0_24_139
*739 FILLER_0_24_141
*740 FILLER_0_24_15
*741 FILLER_0_24_153
*742 FILLER_0_24_165
*743 FILLER_0_24_177
*744 FILLER_0_24_189
*745 FILLER_0_24_195
*746 FILLER_0_24_197
*747 FILLER_0_24_209
*748 FILLER_0_24_221
*749 FILLER_0_24_233
*750 FILLER_0_24_245
*751 FILLER_0_24_251
*752 FILLER_0_24_253
*753 FILLER_0_24_265
*754 FILLER_0_24_27
*755 FILLER_0_24_277
*756 FILLER_0_24_289
*757 FILLER_0_24_29
*758 FILLER_0_24_3
*759 FILLER_0_24_301
*760 FILLER_0_24_307
*761 FILLER_0_24_309
*762 FILLER_0_24_321
*763 FILLER_0_24_333
*764 FILLER_0_24_41
*765 FILLER_0_24_53
*766 FILLER_0_24_65
*767 FILLER_0_24_77
*768 FILLER_0_24_83
*769 FILLER_0_24_85
*770 FILLER_0_24_97
*771 FILLER_0_25_105
*772 FILLER_0_25_111
*773 FILLER_0_25_113
*774 FILLER_0_25_125
*775 FILLER_0_25_137
*776 FILLER_0_25_149
*777 FILLER_0_25_15
*778 FILLER_0_25_161
*779 FILLER_0_25_167
*780 FILLER_0_25_169
*781 FILLER_0_25_181
*782 FILLER_0_25_193
*783 FILLER_0_25_205
*784 FILLER_0_25_217
*785 FILLER_0_25_223
*786 FILLER_0_25_225
*787 FILLER_0_25_237
*788 FILLER_0_25_249
*789 FILLER_0_25_261
*790 FILLER_0_25_27
*791 FILLER_0_25_273
*792 FILLER_0_25_279
*793 FILLER_0_25_281
*794 FILLER_0_25_293
*795 FILLER_0_25_3
*796 FILLER_0_25_305
*797 FILLER_0_25_317
*798 FILLER_0_25_329
*799 FILLER_0_25_39
*800 FILLER_0_25_51
*801 FILLER_0_25_55
*802 FILLER_0_25_57
*803 FILLER_0_25_69
*804 FILLER_0_25_81
*805 FILLER_0_25_93
*806 FILLER_0_26_109
*807 FILLER_0_26_121
*808 FILLER_0_26_133
*809 FILLER_0_26_139
*810 FILLER_0_26_141
*811 FILLER_0_26_15
*812 FILLER_0_26_153
*813 FILLER_0_26_165
*814 FILLER_0_26_177
*815 FILLER_0_26_189
*816 FILLER_0_26_195
*817 FILLER_0_26_197
*818 FILLER_0_26_209
*819 FILLER_0_26_221
*820 FILLER_0_26_233
*821 FILLER_0_26_245
*822 FILLER_0_26_251
*823 FILLER_0_26_253
*824 FILLER_0_26_265
*825 FILLER_0_26_27
*826 FILLER_0_26_277
*827 FILLER_0_26_289
*828 FILLER_0_26_29
*829 FILLER_0_26_3
*830 FILLER_0_26_301
*831 FILLER_0_26_307
*832 FILLER_0_26_309
*833 FILLER_0_26_321
*834 FILLER_0_26_333
*835 FILLER_0_26_41
*836 FILLER_0_26_53
*837 FILLER_0_26_65
*838 FILLER_0_26_77
*839 FILLER_0_26_83
*840 FILLER_0_26_85
*841 FILLER_0_26_97
*842 FILLER_0_27_105
*843 FILLER_0_27_111
*844 FILLER_0_27_113
*845 FILLER_0_27_125
*846 FILLER_0_27_137
*847 FILLER_0_27_149
*848 FILLER_0_27_15
*849 FILLER_0_27_161
*850 FILLER_0_27_167
*851 FILLER_0_27_169
*852 FILLER_0_27_181
*853 FILLER_0_27_193
*854 FILLER_0_27_205
*855 FILLER_0_27_217
*856 FILLER_0_27_223
*857 FILLER_0_27_225
*858 FILLER_0_27_237
*859 FILLER_0_27_249
*860 FILLER_0_27_261
*861 FILLER_0_27_27
*862 FILLER_0_27_273
*863 FILLER_0_27_279
*864 FILLER_0_27_281
*865 FILLER_0_27_293
*866 FILLER_0_27_3
*867 FILLER_0_27_305
*868 FILLER_0_27_317
*869 FILLER_0_27_329
*870 FILLER_0_27_39
*871 FILLER_0_27_51
*872 FILLER_0_27_55
*873 FILLER_0_27_57
*874 FILLER_0_27_69
*875 FILLER_0_27_81
*876 FILLER_0_27_93
*877 FILLER_0_28_109
*878 FILLER_0_28_121
*879 FILLER_0_28_133
*880 FILLER_0_28_139
*881 FILLER_0_28_141
*882 FILLER_0_28_15
*883 FILLER_0_28_153
*884 FILLER_0_28_165
*885 FILLER_0_28_177
*886 FILLER_0_28_189
*887 FILLER_0_28_195
*888 FILLER_0_28_197
*889 FILLER_0_28_209
*890 FILLER_0_28_221
*891 FILLER_0_28_233
*892 FILLER_0_28_245
*893 FILLER_0_28_251
*894 FILLER_0_28_253
*895 FILLER_0_28_265
*896 FILLER_0_28_27
*897 FILLER_0_28_277
*898 FILLER_0_28_289
*899 FILLER_0_28_29
*900 FILLER_0_28_3
*901 FILLER_0_28_301
*902 FILLER_0_28_307
*903 FILLER_0_28_309
*904 FILLER_0_28_321
*905 FILLER_0_28_333
*906 FILLER_0_28_41
*907 FILLER_0_28_53
*908 FILLER_0_28_65
*909 FILLER_0_28_77
*910 FILLER_0_28_83
*911 FILLER_0_28_85
*912 FILLER_0_28_97
*913 FILLER_0_29_105
*914 FILLER_0_29_111
*915 FILLER_0_29_113
*916 FILLER_0_29_125
*917 FILLER_0_29_137
*918 FILLER_0_29_143
*919 FILLER_0_29_15
*920 FILLER_0_29_166
*921 FILLER_0_29_169
*922 FILLER_0_29_177
*923 FILLER_0_29_183
*924 FILLER_0_29_187
*925 FILLER_0_29_196
*926 FILLER_0_29_222
*927 FILLER_0_29_225
*928 FILLER_0_29_237
*929 FILLER_0_29_249
*930 FILLER_0_29_261
*931 FILLER_0_29_27
*932 FILLER_0_29_273
*933 FILLER_0_29_279
*934 FILLER_0_29_281
*935 FILLER_0_29_293
*936 FILLER_0_29_3
*937 FILLER_0_29_305
*938 FILLER_0_29_317
*939 FILLER_0_29_329
*940 FILLER_0_29_39
*941 FILLER_0_29_51
*942 FILLER_0_29_55
*943 FILLER_0_29_57
*944 FILLER_0_29_69
*945 FILLER_0_29_81
*946 FILLER_0_29_93
*947 FILLER_0_2_109
*948 FILLER_0_2_121
*949 FILLER_0_2_133
*950 FILLER_0_2_139
*951 FILLER_0_2_141
*952 FILLER_0_2_15
*953 FILLER_0_2_153
*954 FILLER_0_2_165
*955 FILLER_0_2_177
*956 FILLER_0_2_189
*957 FILLER_0_2_195
*958 FILLER_0_2_197
*959 FILLER_0_2_209
*960 FILLER_0_2_221
*961 FILLER_0_2_233
*962 FILLER_0_2_245
*963 FILLER_0_2_251
*964 FILLER_0_2_253
*965 FILLER_0_2_265
*966 FILLER_0_2_27
*967 FILLER_0_2_277
*968 FILLER_0_2_289
*969 FILLER_0_2_29
*970 FILLER_0_2_3
*971 FILLER_0_2_301
*972 FILLER_0_2_307
*973 FILLER_0_2_309
*974 FILLER_0_2_321
*975 FILLER_0_2_333
*976 FILLER_0_2_41
*977 FILLER_0_2_53
*978 FILLER_0_2_65
*979 FILLER_0_2_77
*980 FILLER_0_2_83
*981 FILLER_0_2_85
*982 FILLER_0_2_97
*983 FILLER_0_30_109
*984 FILLER_0_30_121
*985 FILLER_0_30_133
*986 FILLER_0_30_139
*987 FILLER_0_30_141
*988 FILLER_0_30_149
*989 FILLER_0_30_15
*990 FILLER_0_30_223
*991 FILLER_0_30_229
*992 FILLER_0_30_233
*993 FILLER_0_30_239
*994 FILLER_0_30_246
*995 FILLER_0_30_250
*996 FILLER_0_30_253
*997 FILLER_0_30_265
*998 FILLER_0_30_27
*999 FILLER_0_30_277
*1000 FILLER_0_30_289
*1001 FILLER_0_30_29
*1002 FILLER_0_30_3
*1003 FILLER_0_30_301
*1004 FILLER_0_30_307
*1005 FILLER_0_30_309
*1006 FILLER_0_30_321
*1007 FILLER_0_30_333
*1008 FILLER_0_30_41
*1009 FILLER_0_30_53
*1010 FILLER_0_30_65
*1011 FILLER_0_30_77
*1012 FILLER_0_30_83
*1013 FILLER_0_30_85
*1014 FILLER_0_30_97
*1015 FILLER_0_31_105
*1016 FILLER_0_31_111
*1017 FILLER_0_31_113
*1018 FILLER_0_31_125
*1019 FILLER_0_31_140
*1020 FILLER_0_31_144
*1021 FILLER_0_31_15
*1022 FILLER_0_31_167
*1023 FILLER_0_31_169
*1024 FILLER_0_31_178
*1025 FILLER_0_31_190
*1026 FILLER_0_31_218
*1027 FILLER_0_31_27
*1028 FILLER_0_31_271
*1029 FILLER_0_31_279
*1030 FILLER_0_31_284
*1031 FILLER_0_31_296
*1032 FILLER_0_31_3
*1033 FILLER_0_31_308
*1034 FILLER_0_31_320
*1035 FILLER_0_31_332
*1036 FILLER_0_31_39
*1037 FILLER_0_31_51
*1038 FILLER_0_31_55
*1039 FILLER_0_31_57
*1040 FILLER_0_31_69
*1041 FILLER_0_31_81
*1042 FILLER_0_31_93
*1043 FILLER_0_32_109
*1044 FILLER_0_32_121
*1045 FILLER_0_32_141
*1046 FILLER_0_32_145
*1047 FILLER_0_32_15
*1048 FILLER_0_32_161
*1049 FILLER_0_32_177
*1050 FILLER_0_32_189
*1051 FILLER_0_32_225
*1052 FILLER_0_32_237
*1053 FILLER_0_32_258
*1054 FILLER_0_32_266
*1055 FILLER_0_32_27
*1056 FILLER_0_32_29
*1057 FILLER_0_32_291
*1058 FILLER_0_32_3
*1059 FILLER_0_32_303
*1060 FILLER_0_32_307
*1061 FILLER_0_32_309
*1062 FILLER_0_32_321
*1063 FILLER_0_32_333
*1064 FILLER_0_32_41
*1065 FILLER_0_32_53
*1066 FILLER_0_32_65
*1067 FILLER_0_32_77
*1068 FILLER_0_32_83
*1069 FILLER_0_32_85
*1070 FILLER_0_32_97
*1071 FILLER_0_33_105
*1072 FILLER_0_33_111
*1073 FILLER_0_33_113
*1074 FILLER_0_33_125
*1075 FILLER_0_33_15
*1076 FILLER_0_33_167
*1077 FILLER_0_33_169
*1078 FILLER_0_33_181
*1079 FILLER_0_33_189
*1080 FILLER_0_33_216
*1081 FILLER_0_33_225
*1082 FILLER_0_33_257
*1083 FILLER_0_33_261
*1084 FILLER_0_33_269
*1085 FILLER_0_33_27
*1086 FILLER_0_33_278
*1087 FILLER_0_33_281
*1088 FILLER_0_33_290
*1089 FILLER_0_33_299
*1090 FILLER_0_33_3
*1091 FILLER_0_33_311
*1092 FILLER_0_33_323
*1093 FILLER_0_33_39
*1094 FILLER_0_33_51
*1095 FILLER_0_33_55
*1096 FILLER_0_33_57
*1097 FILLER_0_33_69
*1098 FILLER_0_33_81
*1099 FILLER_0_33_93
*1100 FILLER_0_34_109
*1101 FILLER_0_34_121
*1102 FILLER_0_34_127
*1103 FILLER_0_34_135
*1104 FILLER_0_34_139
*1105 FILLER_0_34_146
*1106 FILLER_0_34_15
*1107 FILLER_0_34_154
*1108 FILLER_0_34_166
*1109 FILLER_0_34_178
*1110 FILLER_0_34_182
*1111 FILLER_0_34_186
*1112 FILLER_0_34_192
*1113 FILLER_0_34_210
*1114 FILLER_0_34_222
*1115 FILLER_0_34_234
*1116 FILLER_0_34_238
*1117 FILLER_0_34_251
*1118 FILLER_0_34_258
*1119 FILLER_0_34_262
*1120 FILLER_0_34_27
*1121 FILLER_0_34_29
*1122 FILLER_0_34_3
*1123 FILLER_0_34_309
*1124 FILLER_0_34_321
*1125 FILLER_0_34_333
*1126 FILLER_0_34_41
*1127 FILLER_0_34_53
*1128 FILLER_0_34_65
*1129 FILLER_0_34_77
*1130 FILLER_0_34_83
*1131 FILLER_0_34_85
*1132 FILLER_0_34_97
*1133 FILLER_0_35_105
*1134 FILLER_0_35_111
*1135 FILLER_0_35_113
*1136 FILLER_0_35_125
*1137 FILLER_0_35_129
*1138 FILLER_0_35_15
*1139 FILLER_0_35_167
*1140 FILLER_0_35_174
*1141 FILLER_0_35_195
*1142 FILLER_0_35_204
*1143 FILLER_0_35_216
*1144 FILLER_0_35_228
*1145 FILLER_0_35_254
*1146 FILLER_0_35_263
*1147 FILLER_0_35_269
*1148 FILLER_0_35_27
*1149 FILLER_0_35_281
*1150 FILLER_0_35_3
*1151 FILLER_0_35_306
*1152 FILLER_0_35_318
*1153 FILLER_0_35_330
*1154 FILLER_0_35_334
*1155 FILLER_0_35_39
*1156 FILLER_0_35_51
*1157 FILLER_0_35_55
*1158 FILLER_0_35_57
*1159 FILLER_0_35_69
*1160 FILLER_0_35_81
*1161 FILLER_0_35_93
*1162 FILLER_0_36_109
*1163 FILLER_0_36_121
*1164 FILLER_0_36_136
*1165 FILLER_0_36_141
*1166 FILLER_0_36_15
*1167 FILLER_0_36_191
*1168 FILLER_0_36_195
*1169 FILLER_0_36_197
*1170 FILLER_0_36_201
*1171 FILLER_0_36_214
*1172 FILLER_0_36_256
*1173 FILLER_0_36_267
*1174 FILLER_0_36_27
*1175 FILLER_0_36_275
*1176 FILLER_0_36_283
*1177 FILLER_0_36_29
*1178 FILLER_0_36_293
*1179 FILLER_0_36_3
*1180 FILLER_0_36_305
*1181 FILLER_0_36_309
*1182 FILLER_0_36_315
*1183 FILLER_0_36_319
*1184 FILLER_0_36_331
*1185 FILLER_0_36_41
*1186 FILLER_0_36_53
*1187 FILLER_0_36_65
*1188 FILLER_0_36_77
*1189 FILLER_0_36_83
*1190 FILLER_0_36_85
*1191 FILLER_0_36_97
*1192 FILLER_0_37_105
*1193 FILLER_0_37_111
*1194 FILLER_0_37_113
*1195 FILLER_0_37_125
*1196 FILLER_0_37_135
*1197 FILLER_0_37_146
*1198 FILLER_0_37_15
*1199 FILLER_0_37_150
*1200 FILLER_0_37_176
*1201 FILLER_0_37_188
*1202 FILLER_0_37_219
*1203 FILLER_0_37_223
*1204 FILLER_0_37_225
*1205 FILLER_0_37_231
*1206 FILLER_0_37_269
*1207 FILLER_0_37_27
*1208 FILLER_0_37_277
*1209 FILLER_0_37_3
*1210 FILLER_0_37_304
*1211 FILLER_0_37_328
*1212 FILLER_0_37_334
*1213 FILLER_0_37_39
*1214 FILLER_0_37_51
*1215 FILLER_0_37_55
*1216 FILLER_0_37_57
*1217 FILLER_0_37_69
*1218 FILLER_0_37_81
*1219 FILLER_0_37_93
*1220 FILLER_0_38_10
*1221 FILLER_0_38_102
*1222 FILLER_0_38_106
*1223 FILLER_0_38_110
*1224 FILLER_0_38_113
*1225 FILLER_0_38_118
*1226 FILLER_0_38_122
*1227 FILLER_0_38_126
*1228 FILLER_0_38_134
*1229 FILLER_0_38_139
*1230 FILLER_0_38_14
*1231 FILLER_0_38_141
*1232 FILLER_0_38_145
*1233 FILLER_0_38_159
*1234 FILLER_0_38_169
*1235 FILLER_0_38_18
*1236 FILLER_0_38_181
*1237 FILLER_0_38_193
*1238 FILLER_0_38_197
*1239 FILLER_0_38_206
*1240 FILLER_0_38_212
*1241 FILLER_0_38_22
*1242 FILLER_0_38_234
*1243 FILLER_0_38_246
*1244 FILLER_0_38_253
*1245 FILLER_0_38_270
*1246 FILLER_0_38_278
*1247 FILLER_0_38_281
*1248 FILLER_0_38_286
*1249 FILLER_0_38_290
*1250 FILLER_0_38_294
*1251 FILLER_0_38_305
*1252 FILLER_0_38_309
*1253 FILLER_0_38_32
*1254 FILLER_0_38_321
*1255 FILLER_0_38_329
*1256 FILLER_0_38_38
*1257 FILLER_0_38_42
*1258 FILLER_0_38_46
*1259 FILLER_0_38_50
*1260 FILLER_0_38_54
*1261 FILLER_0_38_57
*1262 FILLER_0_38_6
*1263 FILLER_0_38_62
*1264 FILLER_0_38_66
*1265 FILLER_0_38_70
*1266 FILLER_0_38_74
*1267 FILLER_0_38_78
*1268 FILLER_0_38_88
*1269 FILLER_0_38_94
*1270 FILLER_0_38_98
*1271 FILLER_0_3_105
*1272 FILLER_0_3_111
*1273 FILLER_0_3_113
*1274 FILLER_0_3_125
*1275 FILLER_0_3_137
*1276 FILLER_0_3_149
*1277 FILLER_0_3_15
*1278 FILLER_0_3_161
*1279 FILLER_0_3_167
*1280 FILLER_0_3_169
*1281 FILLER_0_3_181
*1282 FILLER_0_3_193
*1283 FILLER_0_3_205
*1284 FILLER_0_3_217
*1285 FILLER_0_3_223
*1286 FILLER_0_3_225
*1287 FILLER_0_3_237
*1288 FILLER_0_3_249
*1289 FILLER_0_3_261
*1290 FILLER_0_3_27
*1291 FILLER_0_3_273
*1292 FILLER_0_3_279
*1293 FILLER_0_3_281
*1294 FILLER_0_3_293
*1295 FILLER_0_3_3
*1296 FILLER_0_3_305
*1297 FILLER_0_3_317
*1298 FILLER_0_3_329
*1299 FILLER_0_3_39
*1300 FILLER_0_3_51
*1301 FILLER_0_3_55
*1302 FILLER_0_3_57
*1303 FILLER_0_3_69
*1304 FILLER_0_3_81
*1305 FILLER_0_3_93
*1306 FILLER_0_4_109
*1307 FILLER_0_4_121
*1308 FILLER_0_4_133
*1309 FILLER_0_4_139
*1310 FILLER_0_4_141
*1311 FILLER_0_4_15
*1312 FILLER_0_4_153
*1313 FILLER_0_4_165
*1314 FILLER_0_4_177
*1315 FILLER_0_4_189
*1316 FILLER_0_4_195
*1317 FILLER_0_4_197
*1318 FILLER_0_4_209
*1319 FILLER_0_4_221
*1320 FILLER_0_4_233
*1321 FILLER_0_4_245
*1322 FILLER_0_4_251
*1323 FILLER_0_4_253
*1324 FILLER_0_4_265
*1325 FILLER_0_4_27
*1326 FILLER_0_4_277
*1327 FILLER_0_4_289
*1328 FILLER_0_4_29
*1329 FILLER_0_4_3
*1330 FILLER_0_4_301
*1331 FILLER_0_4_307
*1332 FILLER_0_4_309
*1333 FILLER_0_4_321
*1334 FILLER_0_4_333
*1335 FILLER_0_4_41
*1336 FILLER_0_4_53
*1337 FILLER_0_4_65
*1338 FILLER_0_4_77
*1339 FILLER_0_4_83
*1340 FILLER_0_4_85
*1341 FILLER_0_4_97
*1342 FILLER_0_5_105
*1343 FILLER_0_5_111
*1344 FILLER_0_5_113
*1345 FILLER_0_5_125
*1346 FILLER_0_5_137
*1347 FILLER_0_5_149
*1348 FILLER_0_5_15
*1349 FILLER_0_5_161
*1350 FILLER_0_5_167
*1351 FILLER_0_5_169
*1352 FILLER_0_5_181
*1353 FILLER_0_5_193
*1354 FILLER_0_5_205
*1355 FILLER_0_5_217
*1356 FILLER_0_5_223
*1357 FILLER_0_5_225
*1358 FILLER_0_5_237
*1359 FILLER_0_5_249
*1360 FILLER_0_5_261
*1361 FILLER_0_5_27
*1362 FILLER_0_5_273
*1363 FILLER_0_5_279
*1364 FILLER_0_5_281
*1365 FILLER_0_5_293
*1366 FILLER_0_5_3
*1367 FILLER_0_5_305
*1368 FILLER_0_5_317
*1369 FILLER_0_5_329
*1370 FILLER_0_5_39
*1371 FILLER_0_5_51
*1372 FILLER_0_5_55
*1373 FILLER_0_5_57
*1374 FILLER_0_5_69
*1375 FILLER_0_5_81
*1376 FILLER_0_5_93
*1377 FILLER_0_6_109
*1378 FILLER_0_6_121
*1379 FILLER_0_6_133
*1380 FILLER_0_6_139
*1381 FILLER_0_6_141
*1382 FILLER_0_6_15
*1383 FILLER_0_6_153
*1384 FILLER_0_6_165
*1385 FILLER_0_6_177
*1386 FILLER_0_6_189
*1387 FILLER_0_6_195
*1388 FILLER_0_6_197
*1389 FILLER_0_6_209
*1390 FILLER_0_6_221
*1391 FILLER_0_6_233
*1392 FILLER_0_6_245
*1393 FILLER_0_6_251
*1394 FILLER_0_6_253
*1395 FILLER_0_6_265
*1396 FILLER_0_6_27
*1397 FILLER_0_6_277
*1398 FILLER_0_6_289
*1399 FILLER_0_6_29
*1400 FILLER_0_6_3
*1401 FILLER_0_6_301
*1402 FILLER_0_6_307
*1403 FILLER_0_6_309
*1404 FILLER_0_6_321
*1405 FILLER_0_6_333
*1406 FILLER_0_6_41
*1407 FILLER_0_6_53
*1408 FILLER_0_6_65
*1409 FILLER_0_6_77
*1410 FILLER_0_6_83
*1411 FILLER_0_6_85
*1412 FILLER_0_6_97
*1413 FILLER_0_7_105
*1414 FILLER_0_7_111
*1415 FILLER_0_7_113
*1416 FILLER_0_7_125
*1417 FILLER_0_7_137
*1418 FILLER_0_7_149
*1419 FILLER_0_7_15
*1420 FILLER_0_7_161
*1421 FILLER_0_7_167
*1422 FILLER_0_7_169
*1423 FILLER_0_7_181
*1424 FILLER_0_7_193
*1425 FILLER_0_7_205
*1426 FILLER_0_7_217
*1427 FILLER_0_7_223
*1428 FILLER_0_7_225
*1429 FILLER_0_7_237
*1430 FILLER_0_7_249
*1431 FILLER_0_7_261
*1432 FILLER_0_7_27
*1433 FILLER_0_7_273
*1434 FILLER_0_7_279
*1435 FILLER_0_7_281
*1436 FILLER_0_7_293
*1437 FILLER_0_7_3
*1438 FILLER_0_7_305
*1439 FILLER_0_7_317
*1440 FILLER_0_7_329
*1441 FILLER_0_7_39
*1442 FILLER_0_7_51
*1443 FILLER_0_7_55
*1444 FILLER_0_7_57
*1445 FILLER_0_7_69
*1446 FILLER_0_7_81
*1447 FILLER_0_7_93
*1448 FILLER_0_8_109
*1449 FILLER_0_8_121
*1450 FILLER_0_8_133
*1451 FILLER_0_8_139
*1452 FILLER_0_8_141
*1453 FILLER_0_8_15
*1454 FILLER_0_8_153
*1455 FILLER_0_8_165
*1456 FILLER_0_8_177
*1457 FILLER_0_8_189
*1458 FILLER_0_8_195
*1459 FILLER_0_8_197
*1460 FILLER_0_8_209
*1461 FILLER_0_8_221
*1462 FILLER_0_8_233
*1463 FILLER_0_8_245
*1464 FILLER_0_8_251
*1465 FILLER_0_8_253
*1466 FILLER_0_8_265
*1467 FILLER_0_8_27
*1468 FILLER_0_8_277
*1469 FILLER_0_8_289
*1470 FILLER_0_8_29
*1471 FILLER_0_8_3
*1472 FILLER_0_8_301
*1473 FILLER_0_8_307
*1474 FILLER_0_8_309
*1475 FILLER_0_8_321
*1476 FILLER_0_8_333
*1477 FILLER_0_8_41
*1478 FILLER_0_8_53
*1479 FILLER_0_8_65
*1480 FILLER_0_8_77
*1481 FILLER_0_8_83
*1482 FILLER_0_8_85
*1483 FILLER_0_8_97
*1484 FILLER_0_9_105
*1485 FILLER_0_9_111
*1486 FILLER_0_9_113
*1487 FILLER_0_9_125
*1488 FILLER_0_9_137
*1489 FILLER_0_9_149
*1490 FILLER_0_9_15
*1491 FILLER_0_9_161
*1492 FILLER_0_9_167
*1493 FILLER_0_9_169
*1494 FILLER_0_9_181
*1495 FILLER_0_9_193
*1496 FILLER_0_9_205
*1497 FILLER_0_9_217
*1498 FILLER_0_9_223
*1499 FILLER_0_9_225
*1500 FILLER_0_9_237
*1501 FILLER_0_9_249
*1502 FILLER_0_9_261
*1503 FILLER_0_9_27
*1504 FILLER_0_9_273
*1505 FILLER_0_9_279