*SPEF "ieee 1481-1999"
*DESIGN "tt_um_jduchniewicz_prng"
*DATE "06:16:26 Thursday April 18, 2024"
*VENDOR "The OpenROAD Project"
*PROGRAM "OpenROAD"
*VERSION "0889970d1790a2617e69f253221b8bd7626e51dc"
*DESIGN_FLOW "NAME_SCOPE LOCAL" "PIN_CAP NONE"
*DIVIDER /
*DELIMITER :
*BUS_DELIMITER []
*T_UNIT 1 NS
*C_UNIT 1 PF
*R_UNIT 1 OHM
*L_UNIT 1 HENRY

*NAME_MAP
*3 clk
*4 ena
*5 rst_n
*6 ui_in[0]
*7 ui_in[1]
*8 ui_in[2]
*9 ui_in[3]
*10 ui_in[4]
*11 ui_in[5]
*12 ui_in[6]
*13 ui_in[7]
*14 uio_in[0]
*15 uio_in[1]
*16 uio_in[2]
*17 uio_in[3]
*18 uio_in[4]
*19 uio_in[5]
*20 uio_in[6]
*21 uio_in[7]
*22 net11
*23 net12
*24 net13
*25 net14
*26 net15
*27 net16
*28 net17
*29 net18
*30 uio_out[0]
*31 uio_out[1]
*32 uio_out[2]
*33 uio_out[3]
*34 uio_out[4]
*35 uio_out[5]
*36 uio_out[6]
*37 uio_out[7]
*38 uo_out[0]
*39 uo_out[1]
*40 uo_out[2]
*41 uo_out[3]
*42 uo_out[4]
*43 uo_out[5]
*44 uo_out[6]
*45 uo_out[7]
*46 _000_
*47 _001_
*48 _002_
*49 _003_
*50 _004_
*51 _005_
*52 _006_
*53 _007_
*54 _008_
*55 _009_
*56 _010_
*57 _011_
*58 _012_
*59 _013_
*60 _014_
*61 _015_
*62 _016_
*63 _017_
*64 _018_
*65 _019_
*66 _020_
*67 _021_
*68 _022_
*69 _023_
*70 _024_
*71 _025_
*72 _026_
*73 _027_
*74 _028_
*75 _029_
*76 _030_
*77 _031_
*78 _032_
*79 _033_
*80 _034_
*81 _035_
*82 _036_
*83 _037_
*84 _038_
*85 _039_
*86 _040_
*87 _041_
*88 _042_
*89 _043_
*90 _044_
*91 _045_
*92 _046_
*93 _047_
*94 _048_
*95 _049_
*96 _050_
*97 _051_
*98 _052_
*99 _053_
*100 _054_
*101 _055_
*102 _056_
*103 _057_
*104 _058_
*105 clknet_0_clk
*106 clknet_1_0__leaf_clk
*107 clknet_1_1__leaf_clk
*108 lfsr\[0\]
*109 lfsr\[10\]
*110 lfsr\[11\]
*111 lfsr\[12\]
*112 lfsr\[13\]
*113 lfsr\[14\]
*114 lfsr\[15\]
*115 lfsr\[1\]
*116 lfsr\[2\]
*117 lfsr\[3\]
*118 lfsr\[4\]
*119 lfsr\[5\]
*120 lfsr\[6\]
*121 lfsr\[7\]
*122 lfsr\[8\]
*123 lfsr\[9\]
*124 net1
*125 net10
*126 net19
*127 net2
*128 net20
*129 net21
*130 net22
*131 net23
*132 net24
*133 net25
*134 net26
*135 net27
*136 net28
*137 net29
*138 net3
*139 net30
*140 net31
*141 net32
*142 net33
*143 net34
*144 net35
*145 net36
*146 net37
*147 net38
*148 net39
*149 net4
*150 net40
*151 net41
*152 net42
*153 net43
*154 net44
*155 net45
*156 net46
*157 net47
*158 net48
*159 net5
*160 net6
*161 net7
*162 net8
*163 net9
*164 ANTENNA_1
*165 ANTENNA_2
*166 ANTENNA_3
*167 ANTENNA_4
*168 ANTENNA_5
*169 ANTENNA_6
*170 FILLER_0_0_109
*171 FILLER_0_0_113
*172 FILLER_0_0_125
*173 FILLER_0_0_137
*174 FILLER_0_0_141
*175 FILLER_0_0_15
*176 FILLER_0_0_153
*177 FILLER_0_0_165
*178 FILLER_0_0_169
*179 FILLER_0_0_181
*180 FILLER_0_0_193
*181 FILLER_0_0_197
*182 FILLER_0_0_209
*183 FILLER_0_0_221
*184 FILLER_0_0_225
*185 FILLER_0_0_237
*186 FILLER_0_0_249
*187 FILLER_0_0_253
*188 FILLER_0_0_265
*189 FILLER_0_0_27
*190 FILLER_0_0_277
*191 FILLER_0_0_281
*192 FILLER_0_0_29
*193 FILLER_0_0_293
*194 FILLER_0_0_3
*195 FILLER_0_0_305
*196 FILLER_0_0_309
*197 FILLER_0_0_321
*198 FILLER_0_0_333
*199 FILLER_0_0_41
*200 FILLER_0_0_53
*201 FILLER_0_0_57
*202 FILLER_0_0_69
*203 FILLER_0_0_81
*204 FILLER_0_0_85
*205 FILLER_0_0_97
*206 FILLER_0_10_109
*207 FILLER_0_10_121
*208 FILLER_0_10_133
*209 FILLER_0_10_139
*210 FILLER_0_10_141
*211 FILLER_0_10_15
*212 FILLER_0_10_153
*213 FILLER_0_10_165
*214 FILLER_0_10_177
*215 FILLER_0_10_189
*216 FILLER_0_10_195
*217 FILLER_0_10_197
*218 FILLER_0_10_209
*219 FILLER_0_10_221
*220 FILLER_0_10_233
*221 FILLER_0_10_245
*222 FILLER_0_10_251
*223 FILLER_0_10_253
*224 FILLER_0_10_265
*225 FILLER_0_10_27
*226 FILLER_0_10_277
*227 FILLER_0_10_289
*228 FILLER_0_10_29
*229 FILLER_0_10_3
*230 FILLER_0_10_301
*231 FILLER_0_10_307
*232 FILLER_0_10_309
*233 FILLER_0_10_321
*234 FILLER_0_10_333
*235 FILLER_0_10_41
*236 FILLER_0_10_53
*237 FILLER_0_10_65
*238 FILLER_0_10_77
*239 FILLER_0_10_83
*240 FILLER_0_10_85
*241 FILLER_0_10_97
*242 FILLER_0_11_105
*243 FILLER_0_11_111
*244 FILLER_0_11_113
*245 FILLER_0_11_125
*246 FILLER_0_11_137
*247 FILLER_0_11_149
*248 FILLER_0_11_15
*249 FILLER_0_11_161
*250 FILLER_0_11_167
*251 FILLER_0_11_169
*252 FILLER_0_11_181
*253 FILLER_0_11_193
*254 FILLER_0_11_205
*255 FILLER_0_11_217
*256 FILLER_0_11_223
*257 FILLER_0_11_225
*258 FILLER_0_11_237
*259 FILLER_0_11_249
*260 FILLER_0_11_261
*261 FILLER_0_11_27
*262 FILLER_0_11_273
*263 FILLER_0_11_279
*264 FILLER_0_11_281
*265 FILLER_0_11_293
*266 FILLER_0_11_3
*267 FILLER_0_11_305
*268 FILLER_0_11_317
*269 FILLER_0_11_329
*270 FILLER_0_11_39
*271 FILLER_0_11_51
*272 FILLER_0_11_55
*273 FILLER_0_11_57
*274 FILLER_0_11_69
*275 FILLER_0_11_81
*276 FILLER_0_11_93
*277 FILLER_0_12_109
*278 FILLER_0_12_121
*279 FILLER_0_12_133
*280 FILLER_0_12_139
*281 FILLER_0_12_141
*282 FILLER_0_12_15
*283 FILLER_0_12_153
*284 FILLER_0_12_165
*285 FILLER_0_12_177
*286 FILLER_0_12_189
*287 FILLER_0_12_195
*288 FILLER_0_12_197
*289 FILLER_0_12_209
*290 FILLER_0_12_221
*291 FILLER_0_12_233
*292 FILLER_0_12_245
*293 FILLER_0_12_251
*294 FILLER_0_12_253
*295 FILLER_0_12_265
*296 FILLER_0_12_27
*297 FILLER_0_12_277
*298 FILLER_0_12_289
*299 FILLER_0_12_29
*300 FILLER_0_12_3
*301 FILLER_0_12_301
*302 FILLER_0_12_307
*303 FILLER_0_12_309
*304 FILLER_0_12_321
*305 FILLER_0_12_333
*306 FILLER_0_12_41
*307 FILLER_0_12_53
*308 FILLER_0_12_65
*309 FILLER_0_12_77
*310 FILLER_0_12_83
*311 FILLER_0_12_85
*312 FILLER_0_12_97
*313 FILLER_0_13_105
*314 FILLER_0_13_111
*315 FILLER_0_13_113
*316 FILLER_0_13_125
*317 FILLER_0_13_137
*318 FILLER_0_13_149
*319 FILLER_0_13_15
*320 FILLER_0_13_161
*321 FILLER_0_13_167
*322 FILLER_0_13_169
*323 FILLER_0_13_181
*324 FILLER_0_13_193
*325 FILLER_0_13_205
*326 FILLER_0_13_217
*327 FILLER_0_13_223
*328 FILLER_0_13_225
*329 FILLER_0_13_237
*330 FILLER_0_13_249
*331 FILLER_0_13_261
*332 FILLER_0_13_27
*333 FILLER_0_13_273
*334 FILLER_0_13_279
*335 FILLER_0_13_281
*336 FILLER_0_13_293
*337 FILLER_0_13_3
*338 FILLER_0_13_305
*339 FILLER_0_13_317
*340 FILLER_0_13_329
*341 FILLER_0_13_39
*342 FILLER_0_13_51
*343 FILLER_0_13_55
*344 FILLER_0_13_57
*345 FILLER_0_13_69
*346 FILLER_0_13_81
*347 FILLER_0_13_93
*348 FILLER_0_14_109
*349 FILLER_0_14_121
*350 FILLER_0_14_133
*351 FILLER_0_14_139
*352 FILLER_0_14_141
*353 FILLER_0_14_15
*354 FILLER_0_14_153
*355 FILLER_0_14_165
*356 FILLER_0_14_177
*357 FILLER_0_14_189
*358 FILLER_0_14_195
*359 FILLER_0_14_197
*360 FILLER_0_14_209
*361 FILLER_0_14_221
*362 FILLER_0_14_233
*363 FILLER_0_14_245
*364 FILLER_0_14_251
*365 FILLER_0_14_253
*366 FILLER_0_14_265
*367 FILLER_0_14_27
*368 FILLER_0_14_277
*369 FILLER_0_14_289
*370 FILLER_0_14_29
*371 FILLER_0_14_3
*372 FILLER_0_14_301
*373 FILLER_0_14_307
*374 FILLER_0_14_309
*375 FILLER_0_14_321
*376 FILLER_0_14_333
*377 FILLER_0_14_41
*378 FILLER_0_14_53
*379 FILLER_0_14_65
*380 FILLER_0_14_77
*381 FILLER_0_14_83
*382 FILLER_0_14_85
*383 FILLER_0_14_97
*384 FILLER_0_15_105
*385 FILLER_0_15_111
*386 FILLER_0_15_113
*387 FILLER_0_15_125
*388 FILLER_0_15_137
*389 FILLER_0_15_149
*390 FILLER_0_15_15
*391 FILLER_0_15_161
*392 FILLER_0_15_167
*393 FILLER_0_15_169
*394 FILLER_0_15_181
*395 FILLER_0_15_193
*396 FILLER_0_15_205
*397 FILLER_0_15_217
*398 FILLER_0_15_223
*399 FILLER_0_15_225
*400 FILLER_0_15_237
*401 FILLER_0_15_249
*402 FILLER_0_15_261
*403 FILLER_0_15_27
*404 FILLER_0_15_273
*405 FILLER_0_15_279
*406 FILLER_0_15_281
*407 FILLER_0_15_293
*408 FILLER_0_15_3
*409 FILLER_0_15_305
*410 FILLER_0_15_317
*411 FILLER_0_15_329
*412 FILLER_0_15_39
*413 FILLER_0_15_51
*414 FILLER_0_15_55
*415 FILLER_0_15_57
*416 FILLER_0_15_69
*417 FILLER_0_15_81
*418 FILLER_0_15_93
*419 FILLER_0_16_109
*420 FILLER_0_16_121
*421 FILLER_0_16_133
*422 FILLER_0_16_139
*423 FILLER_0_16_141
*424 FILLER_0_16_15
*425 FILLER_0_16_153
*426 FILLER_0_16_165
*427 FILLER_0_16_177
*428 FILLER_0_16_189
*429 FILLER_0_16_195
*430 FILLER_0_16_197
*431 FILLER_0_16_209
*432 FILLER_0_16_221
*433 FILLER_0_16_233
*434 FILLER_0_16_245
*435 FILLER_0_16_251
*436 FILLER_0_16_253
*437 FILLER_0_16_265
*438 FILLER_0_16_27
*439 FILLER_0_16_277
*440 FILLER_0_16_289
*441 FILLER_0_16_29
*442 FILLER_0_16_3
*443 FILLER_0_16_301
*444 FILLER_0_16_307
*445 FILLER_0_16_309
*446 FILLER_0_16_321
*447 FILLER_0_16_333
*448 FILLER_0_16_41
*449 FILLER_0_16_53
*450 FILLER_0_16_65
*451 FILLER_0_16_77
*452 FILLER_0_16_83
*453 FILLER_0_16_85
*454 FILLER_0_16_97
*455 FILLER_0_17_105
*456 FILLER_0_17_111
*457 FILLER_0_17_113
*458 FILLER_0_17_125
*459 FILLER_0_17_137
*460 FILLER_0_17_149
*461 FILLER_0_17_15
*462 FILLER_0_17_161
*463 FILLER_0_17_167
*464 FILLER_0_17_169
*465 FILLER_0_17_181
*466 FILLER_0_17_193
*467 FILLER_0_17_205
*468 FILLER_0_17_217
*469 FILLER_0_17_223
*470 FILLER_0_17_225
*471 FILLER_0_17_237
*472 FILLER_0_17_249
*473 FILLER_0_17_261
*474 FILLER_0_17_27
*475 FILLER_0_17_273
*476 FILLER_0_17_279
*477 FILLER_0_17_281
*478 FILLER_0_17_293
*479 FILLER_0_17_3
*480 FILLER_0_17_305
*481 FILLER_0_17_317
*482 FILLER_0_17_329
*483 FILLER_0_17_39
*484 FILLER_0_17_51
*485 FILLER_0_17_55
*486 FILLER_0_17_57
*487 FILLER_0_17_69
*488 FILLER_0_17_81
*489 FILLER_0_17_93
*490 FILLER_0_18_109
*491 FILLER_0_18_121
*492 FILLER_0_18_133
*493 FILLER_0_18_139
*494 FILLER_0_18_141
*495 FILLER_0_18_15
*496 FILLER_0_18_153
*497 FILLER_0_18_165
*498 FILLER_0_18_177
*499 FILLER_0_18_189
*500 FILLER_0_18_195
*501 FILLER_0_18_197
*502 FILLER_0_18_209
*503 FILLER_0_18_221
*504 FILLER_0_18_233
*505 FILLER_0_18_245
*506 FILLER_0_18_251
*507 FILLER_0_18_253
*508 FILLER_0_18_265
*509 FILLER_0_18_27
*510 FILLER_0_18_277
*511 FILLER_0_18_289
*512 FILLER_0_18_29
*513 FILLER_0_18_3
*514 FILLER_0_18_301
*515 FILLER_0_18_307
*516 FILLER_0_18_309
*517 FILLER_0_18_321
*518 FILLER_0_18_333
*519 FILLER_0_18_41
*520 FILLER_0_18_53
*521 FILLER_0_18_65
*522 FILLER_0_18_77
*523 FILLER_0_18_83
*524 FILLER_0_18_85
*525 FILLER_0_18_97
*526 FILLER_0_19_105
*527 FILLER_0_19_111
*528 FILLER_0_19_113
*529 FILLER_0_19_125
*530 FILLER_0_19_137
*531 FILLER_0_19_149
*532 FILLER_0_19_15
*533 FILLER_0_19_161
*534 FILLER_0_19_167
*535 FILLER_0_19_169
*536 FILLER_0_19_181
*537 FILLER_0_19_193
*538 FILLER_0_19_205
*539 FILLER_0_19_217
*540 FILLER_0_19_223
*541 FILLER_0_19_225
*542 FILLER_0_19_237
*543 FILLER_0_19_249
*544 FILLER_0_19_261
*545 FILLER_0_19_27
*546 FILLER_0_19_273
*547 FILLER_0_19_279
*548 FILLER_0_19_281
*549 FILLER_0_19_293
*550 FILLER_0_19_3
*551 FILLER_0_19_305
*552 FILLER_0_19_317
*553 FILLER_0_19_329
*554 FILLER_0_19_39
*555 FILLER_0_19_51
*556 FILLER_0_19_55
*557 FILLER_0_19_57
*558 FILLER_0_19_69
*559 FILLER_0_19_81
*560 FILLER_0_19_93
*561 FILLER_0_1_105
*562 FILLER_0_1_111
*563 FILLER_0_1_113
*564 FILLER_0_1_125
*565 FILLER_0_1_137
*566 FILLER_0_1_149
*567 FILLER_0_1_15
*568 FILLER_0_1_161
*569 FILLER_0_1_167
*570 FILLER_0_1_169
*571 FILLER_0_1_181
*572 FILLER_0_1_193
*573 FILLER_0_1_205
*574 FILLER_0_1_217
*575 FILLER_0_1_223
*576 FILLER_0_1_225
*577 FILLER_0_1_237
*578 FILLER_0_1_249
*579 FILLER_0_1_261
*580 FILLER_0_1_27
*581 FILLER_0_1_273
*582 FILLER_0_1_279
*583 FILLER_0_1_281
*584 FILLER_0_1_293
*585 FILLER_0_1_3
*586 FILLER_0_1_305
*587 FILLER_0_1_317
*588 FILLER_0_1_329
*589 FILLER_0_1_39
*590 FILLER_0_1_51
*591 FILLER_0_1_55
*592 FILLER_0_1_57
*593 FILLER_0_1_69
*594 FILLER_0_1_81
*595 FILLER_0_1_93
*596 FILLER_0_20_109
*597 FILLER_0_20_121
*598 FILLER_0_20_133
*599 FILLER_0_20_139
*600 FILLER_0_20_141
*601 FILLER_0_20_15
*602 FILLER_0_20_153
*603 FILLER_0_20_165
*604 FILLER_0_20_177
*605 FILLER_0_20_189
*606 FILLER_0_20_195
*607 FILLER_0_20_197
*608 FILLER_0_20_209
*609 FILLER_0_20_221
*610 FILLER_0_20_233
*611 FILLER_0_20_245
*612 FILLER_0_20_251
*613 FILLER_0_20_253
*614 FILLER_0_20_265
*615 FILLER_0_20_27
*616 FILLER_0_20_277
*617 FILLER_0_20_289
*618 FILLER_0_20_29
*619 FILLER_0_20_3
*620 FILLER_0_20_301
*621 FILLER_0_20_307
*622 FILLER_0_20_309
*623 FILLER_0_20_321
*624 FILLER_0_20_333
*625 FILLER_0_20_41
*626 FILLER_0_20_53
*627 FILLER_0_20_65
*628 FILLER_0_20_77
*629 FILLER_0_20_83
*630 FILLER_0_20_85
*631 FILLER_0_20_97
*632 FILLER_0_21_105
*633 FILLER_0_21_111
*634 FILLER_0_21_113
*635 FILLER_0_21_125
*636 FILLER_0_21_137
*637 FILLER_0_21_149
*638 FILLER_0_21_15
*639 FILLER_0_21_161
*640 FILLER_0_21_167
*641 FILLER_0_21_169
*642 FILLER_0_21_181
*643 FILLER_0_21_193
*644 FILLER_0_21_205
*645 FILLER_0_21_217
*646 FILLER_0_21_223
*647 FILLER_0_21_225
*648 FILLER_0_21_237
*649 FILLER_0_21_249
*650 FILLER_0_21_261
*651 FILLER_0_21_27
*652 FILLER_0_21_273
*653 FILLER_0_21_279
*654 FILLER_0_21_281
*655 FILLER_0_21_293
*656 FILLER_0_21_3
*657 FILLER_0_21_305
*658 FILLER_0_21_317
*659 FILLER_0_21_329
*660 FILLER_0_21_39
*661 FILLER_0_21_51
*662 FILLER_0_21_55
*663 FILLER_0_21_57
*664 FILLER_0_21_69
*665 FILLER_0_21_81
*666 FILLER_0_21_93
*667 FILLER_0_22_109
*668 FILLER_0_22_121
*669 FILLER_0_22_133
*670 FILLER_0_22_139
*671 FILLER_0_22_141
*672 FILLER_0_22_15
*673 FILLER_0_22_153
*674 FILLER_0_22_165
*675 FILLER_0_22_177
*676 FILLER_0_22_189
*677 FILLER_0_22_195
*678 FILLER_0_22_197
*679 FILLER_0_22_209
*680 FILLER_0_22_221
*681 FILLER_0_22_233
*682 FILLER_0_22_245
*683 FILLER_0_22_251
*684 FILLER_0_22_253
*685 FILLER_0_22_265
*686 FILLER_0_22_27
*687 FILLER_0_22_277
*688 FILLER_0_22_289
*689 FILLER_0_22_29
*690 FILLER_0_22_3
*691 FILLER_0_22_301
*692 FILLER_0_22_307
*693 FILLER_0_22_309
*694 FILLER_0_22_321
*695 FILLER_0_22_333
*696 FILLER_0_22_41
*697 FILLER_0_22_53
*698 FILLER_0_22_65
*699 FILLER_0_22_77
*700 FILLER_0_22_83
*701 FILLER_0_22_85
*702 FILLER_0_22_97
*703 FILLER_0_23_105
*704 FILLER_0_23_111
*705 FILLER_0_23_113
*706 FILLER_0_23_125
*707 FILLER_0_23_137
*708 FILLER_0_23_149
*709 FILLER_0_23_15
*710 FILLER_0_23_161
*711 FILLER_0_23_167
*712 FILLER_0_23_169
*713 FILLER_0_23_181
*714 FILLER_0_23_193
*715 FILLER_0_23_205
*716 FILLER_0_23_217
*717 FILLER_0_23_223
*718 FILLER_0_23_225
*719 FILLER_0_23_237
*720 FILLER_0_23_249
*721 FILLER_0_23_261
*722 FILLER_0_23_27
*723 FILLER_0_23_273
*724 FILLER_0_23_279
*725 FILLER_0_23_281
*726 FILLER_0_23_293
*727 FILLER_0_23_3
*728 FILLER_0_23_305
*729 FILLER_0_23_317
*730 FILLER_0_23_329
*731 FILLER_0_23_39
*732 FILLER_0_23_51
*733 FILLER_0_23_55
*734 FILLER_0_23_57
*735 FILLER_0_23_69
*736 FILLER_0_23_81
*737 FILLER_0_23_93
*738 FILLER_0_24_109
*739 FILLER_0_24_121
*740 FILLER_0_24_133
*741 FILLER_0_24_139
*742 FILLER_0_24_141
*743 FILLER_0_24_15
*744 FILLER_0_24_153
*745 FILLER_0_24_165
*746 FILLER_0_24_177
*747 FILLER_0_24_189
*748 FILLER_0_24_195
*749 FILLER_0_24_197
*750 FILLER_0_24_209
*751 FILLER_0_24_221
*752 FILLER_0_24_233
*753 FILLER_0_24_245
*754 FILLER_0_24_251
*755 FILLER_0_24_253
*756 FILLER_0_24_265
*757 FILLER_0_24_27
*758 FILLER_0_24_277
*759 FILLER_0_24_289
*760 FILLER_0_24_29
*761 FILLER_0_24_3
*762 FILLER_0_24_301
*763 FILLER_0_24_307
*764 FILLER_0_24_309
*765 FILLER_0_24_321
*766 FILLER_0_24_333
*767 FILLER_0_24_41
*768 FILLER_0_24_53
*769 FILLER_0_24_65
*770 FILLER_0_24_77
*771 FILLER_0_24_83
*772 FILLER_0_24_85
*773 FILLER_0_24_97
*774 FILLER_0_25_105
*775 FILLER_0_25_111
*776 FILLER_0_25_113
*777 FILLER_0_25_125
*778 FILLER_0_25_137
*779 FILLER_0_25_149
*780 FILLER_0_25_15
*781 FILLER_0_25_161
*782 FILLER_0_25_167
*783 FILLER_0_25_169
*784 FILLER_0_25_181
*785 FILLER_0_25_193
*786 FILLER_0_25_205
*787 FILLER_0_25_217
*788 FILLER_0_25_223
*789 FILLER_0_25_225
*790 FILLER_0_25_237
*791 FILLER_0_25_249
*792 FILLER_0_25_261
*793 FILLER_0_25_27
*794 FILLER_0_25_273
*795 FILLER_0_25_279
*796 FILLER_0_25_281
*797 FILLER_0_25_293
*798 FILLER_0_25_3
*799 FILLER_0_25_305
*800 FILLER_0_25_317
*801 FILLER_0_25_329
*802 FILLER_0_25_39
*803 FILLER_0_25_51
*804 FILLER_0_25_55
*805 FILLER_0_25_57
*806 FILLER_0_25_69
*807 FILLER_0_25_81
*808 FILLER_0_25_93
*809 FILLER_0_26_109
*810 FILLER_0_26_121
*811 FILLER_0_26_133
*812 FILLER_0_26_139
*813 FILLER_0_26_141
*814 FILLER_0_26_15
*815 FILLER_0_26_153
*816 FILLER_0_26_165
*817 FILLER_0_26_177
*818 FILLER_0_26_189
*819 FILLER_0_26_195
*820 FILLER_0_26_197
*821 FILLER_0_26_209
*822 FILLER_0_26_221
*823 FILLER_0_26_233
*824 FILLER_0_26_245
*825 FILLER_0_26_251
*826 FILLER_0_26_253
*827 FILLER_0_26_265
*828 FILLER_0_26_27
*829 FILLER_0_26_277
*830 FILLER_0_26_289
*831 FILLER_0_26_29
*832 FILLER_0_26_3
*833 FILLER_0_26_301
*834 FILLER_0_26_307
*835 FILLER_0_26_309
*836 FILLER_0_26_321
*837 FILLER_0_26_333
*838 FILLER_0_26_41
*839 FILLER_0_26_53
*840 FILLER_0_26_65
*841 FILLER_0_26_77
*842 FILLER_0_26_83
*843 FILLER_0_26_85
*844 FILLER_0_26_97
*845 FILLER_0_27_105
*846 FILLER_0_27_111
*847 FILLER_0_27_113
*848 FILLER_0_27_125
*849 FILLER_0_27_137
*850 FILLER_0_27_149
*851 FILLER_0_27_15
*852 FILLER_0_27_161
*853 FILLER_0_27_167
*854 FILLER_0_27_169
*855 FILLER_0_27_181
*856 FILLER_0_27_193
*857 FILLER_0_27_205
*858 FILLER_0_27_217
*859 FILLER_0_27_223
*860 FILLER_0_27_225
*861 FILLER_0_27_237
*862 FILLER_0_27_249
*863 FILLER_0_27_261
*864 FILLER_0_27_27
*865 FILLER_0_27_273
*866 FILLER_0_27_279
*867 FILLER_0_27_281
*868 FILLER_0_27_293
*869 FILLER_0_27_3
*870 FILLER_0_27_305
*871 FILLER_0_27_317
*872 FILLER_0_27_329
*873 FILLER_0_27_39
*874 FILLER_0_27_51
*875 FILLER_0_27_55
*876 FILLER_0_27_57
*877 FILLER_0_27_69
*878 FILLER_0_27_81
*879 FILLER_0_27_93
*880 FILLER_0_28_109
*881 FILLER_0_28_121
*882 FILLER_0_28_133
*883 FILLER_0_28_139
*884 FILLER_0_28_141
*885 FILLER_0_28_15
*886 FILLER_0_28_153
*887 FILLER_0_28_165
*888 FILLER_0_28_177
*889 FILLER_0_28_189
*890 FILLER_0_28_195
*891 FILLER_0_28_197
*892 FILLER_0_28_209
*893 FILLER_0_28_221
*894 FILLER_0_28_233
*895 FILLER_0_28_245
*896 FILLER_0_28_251
*897 FILLER_0_28_253
*898 FILLER_0_28_265
*899 FILLER_0_28_27
*900 FILLER_0_28_277
*901 FILLER_0_28_289
*902 FILLER_0_28_29
*903 FILLER_0_28_3
*904 FILLER_0_28_301
*905 FILLER_0_28_307
*906 FILLER_0_28_309
*907 FILLER_0_28_321
*908 FILLER_0_28_333
*909 FILLER_0_28_41
*910 FILLER_0_28_53
*911 FILLER_0_28_65
*912 FILLER_0_28_77
*913 FILLER_0_28_83
*914 FILLER_0_28_85
*915 FILLER_0_28_97
*916 FILLER_0_29_105
*917 FILLER_0_29_111
*918 FILLER_0_29_113
*919 FILLER_0_29_125
*920 FILLER_0_29_137
*921 FILLER_0_29_149
*922 FILLER_0_29_15
*923 FILLER_0_29_161
*924 FILLER_0_29_167
*925 FILLER_0_29_169
*926 FILLER_0_29_181
*927 FILLER_0_29_193
*928 FILLER_0_29_205
*929 FILLER_0_29_217
*930 FILLER_0_29_223
*931 FILLER_0_29_225
*932 FILLER_0_29_237
*933 FILLER_0_29_249
*934 FILLER_0_29_261
*935 FILLER_0_29_27
*936 FILLER_0_29_273
*937 FILLER_0_29_279
*938 FILLER_0_29_281
*939 FILLER_0_29_293
*940 FILLER_0_29_3
*941 FILLER_0_29_305
*942 FILLER_0_29_317
*943 FILLER_0_29_329
*944 FILLER_0_29_39
*945 FILLER_0_29_51
*946 FILLER_0_29_55
*947 FILLER_0_29_57
*948 FILLER_0_29_69
*949 FILLER_0_29_81
*950 FILLER_0_29_93
*951 FILLER_0_2_109
*952 FILLER_0_2_121
*953 FILLER_0_2_133
*954 FILLER_0_2_139
*955 FILLER_0_2_141
*956 FILLER_0_2_15
*957 FILLER_0_2_153
*958 FILLER_0_2_165
*959 FILLER_0_2_177
*960 FILLER_0_2_189
*961 FILLER_0_2_195
*962 FILLER_0_2_197
*963 FILLER_0_2_209
*964 FILLER_0_2_221
*965 FILLER_0_2_233
*966 FILLER_0_2_245
*967 FILLER_0_2_251
*968 FILLER_0_2_253
*969 FILLER_0_2_265
*970 FILLER_0_2_27
*971 FILLER_0_2_277
*972 FILLER_0_2_289
*973 FILLER_0_2_29
*974 FILLER_0_2_3
*975 FILLER_0_2_301
*976 FILLER_0_2_307
*977 FILLER_0_2_309
*978 FILLER_0_2_321
*979 FILLER_0_2_333
*980 FILLER_0_2_41
*981 FILLER_0_2_53
*982 FILLER_0_2_65
*983 FILLER_0_2_77
*984 FILLER_0_2_83
*985 FILLER_0_2_85
*986 FILLER_0_2_97
*987 FILLER_0_30_109
*988 FILLER_0_30_121
*989 FILLER_0_30_133
*990 FILLER_0_30_139
*991 FILLER_0_30_141
*992 FILLER_0_30_15
*993 FILLER_0_30_153
*994 FILLER_0_30_165
*995 FILLER_0_30_177
*996 FILLER_0_30_189
*997 FILLER_0_30_195
*998 FILLER_0_30_197
*999 FILLER_0_30_209
*1000 FILLER_0_30_221
*1001 FILLER_0_30_233
*1002 FILLER_0_30_245
*1003 FILLER_0_30_251
*1004 FILLER_0_30_253
*1005 FILLER_0_30_265
*1006 FILLER_0_30_27
*1007 FILLER_0_30_277
*1008 FILLER_0_30_289
*1009 FILLER_0_30_29
*1010 FILLER_0_30_3
*1011 FILLER_0_30_301
*1012 FILLER_0_30_307
*1013 FILLER_0_30_309
*1014 FILLER_0_30_321
*1015 FILLER_0_30_333
*1016 FILLER_0_30_41
*1017 FILLER_0_30_53
*1018 FILLER_0_30_65
*1019 FILLER_0_30_77
*1020 FILLER_0_30_83
*1021 FILLER_0_30_85
*1022 FILLER_0_30_97
*1023 FILLER_0_31_105
*1024 FILLER_0_31_111
*1025 FILLER_0_31_113
*1026 FILLER_0_31_125
*1027 FILLER_0_31_137
*1028 FILLER_0_31_149
*1029 FILLER_0_31_15
*1030 FILLER_0_31_157
*1031 FILLER_0_31_167
*1032 FILLER_0_31_176
*1033 FILLER_0_31_188
*1034 FILLER_0_31_200
*1035 FILLER_0_31_212
*1036 FILLER_0_31_228
*1037 FILLER_0_31_236
*1038 FILLER_0_31_253
*1039 FILLER_0_31_266
*1040 FILLER_0_31_27
*1041 FILLER_0_31_275
*1042 FILLER_0_31_279
*1043 FILLER_0_31_281
*1044 FILLER_0_31_293
*1045 FILLER_0_31_3
*1046 FILLER_0_31_305
*1047 FILLER_0_31_317
*1048 FILLER_0_31_329
*1049 FILLER_0_31_39
*1050 FILLER_0_31_51
*1051 FILLER_0_31_55
*1052 FILLER_0_31_57
*1053 FILLER_0_31_69
*1054 FILLER_0_31_81
*1055 FILLER_0_31_93
*1056 FILLER_0_32_109
*1057 FILLER_0_32_121
*1058 FILLER_0_32_133
*1059 FILLER_0_32_139
*1060 FILLER_0_32_141
*1061 FILLER_0_32_15
*1062 FILLER_0_32_153
*1063 FILLER_0_32_159
*1064 FILLER_0_32_183
*1065 FILLER_0_32_195
*1066 FILLER_0_32_197
*1067 FILLER_0_32_205
*1068 FILLER_0_32_230
*1069 FILLER_0_32_248
*1070 FILLER_0_32_261
*1071 FILLER_0_32_27
*1072 FILLER_0_32_29
*1073 FILLER_0_32_296
*1074 FILLER_0_32_3
*1075 FILLER_0_32_309
*1076 FILLER_0_32_321
*1077 FILLER_0_32_333
*1078 FILLER_0_32_41
*1079 FILLER_0_32_53
*1080 FILLER_0_32_65
*1081 FILLER_0_32_77
*1082 FILLER_0_32_83
*1083 FILLER_0_32_85
*1084 FILLER_0_32_97
*1085 FILLER_0_33_105
*1086 FILLER_0_33_111
*1087 FILLER_0_33_113
*1088 FILLER_0_33_125
*1089 FILLER_0_33_137
*1090 FILLER_0_33_149
*1091 FILLER_0_33_15
*1092 FILLER_0_33_161
*1093 FILLER_0_33_167
*1094 FILLER_0_33_217
*1095 FILLER_0_33_223
*1096 FILLER_0_33_225
*1097 FILLER_0_33_247
*1098 FILLER_0_33_27
*1099 FILLER_0_33_276
*1100 FILLER_0_33_3
*1101 FILLER_0_33_305
*1102 FILLER_0_33_317
*1103 FILLER_0_33_329
*1104 FILLER_0_33_39
*1105 FILLER_0_33_51
*1106 FILLER_0_33_55
*1107 FILLER_0_33_57
*1108 FILLER_0_33_69
*1109 FILLER_0_33_81
*1110 FILLER_0_33_93
*1111 FILLER_0_34_109
*1112 FILLER_0_34_121
*1113 FILLER_0_34_133
*1114 FILLER_0_34_139
*1115 FILLER_0_34_141
*1116 FILLER_0_34_147
*1117 FILLER_0_34_15
*1118 FILLER_0_34_167
*1119 FILLER_0_34_195
*1120 FILLER_0_34_197
*1121 FILLER_0_34_201
*1122 FILLER_0_34_237
*1123 FILLER_0_34_269
*1124 FILLER_0_34_27
*1125 FILLER_0_34_29
*1126 FILLER_0_34_290
*1127 FILLER_0_34_3
*1128 FILLER_0_34_307
*1129 FILLER_0_34_309
*1130 FILLER_0_34_321
*1131 FILLER_0_34_333
*1132 FILLER_0_34_41
*1133 FILLER_0_34_53
*1134 FILLER_0_34_65
*1135 FILLER_0_34_77
*1136 FILLER_0_34_83
*1137 FILLER_0_34_85
*1138 FILLER_0_34_97
*1139 FILLER_0_35_105
*1140 FILLER_0_35_111
*1141 FILLER_0_35_113
*1142 FILLER_0_35_15
*1143 FILLER_0_35_165
*1144 FILLER_0_35_174
*1145 FILLER_0_35_193
*1146 FILLER_0_35_222
*1147 FILLER_0_35_27
*1148 FILLER_0_35_277
*1149 FILLER_0_35_3
*1150 FILLER_0_35_308
*1151 FILLER_0_35_314
*1152 FILLER_0_35_319
*1153 FILLER_0_35_331
*1154 FILLER_0_35_39
*1155 FILLER_0_35_51
*1156 FILLER_0_35_55
*1157 FILLER_0_35_57
*1158 FILLER_0_35_69
*1159 FILLER_0_35_81
*1160 FILLER_0_35_93
*1161 FILLER_0_36_101
*1162 FILLER_0_36_104
*1163 FILLER_0_36_110
*1164 FILLER_0_36_118
*1165 FILLER_0_36_15
*1166 FILLER_0_36_158
*1167 FILLER_0_36_197
*1168 FILLER_0_36_216
*1169 FILLER_0_36_27
*1170 FILLER_0_36_29
*1171 FILLER_0_36_3
*1172 FILLER_0_36_307
*1173 FILLER_0_36_309
*1174 FILLER_0_36_325
*1175 FILLER_0_36_41
*1176 FILLER_0_36_53
*1177 FILLER_0_36_65
*1178 FILLER_0_36_77
*1179 FILLER_0_36_83
*1180 FILLER_0_36_85
*1181 FILLER_0_36_97
*1182 FILLER_0_37_102
*1183 FILLER_0_37_106
*1184 FILLER_0_37_110
*1185 FILLER_0_37_119
*1186 FILLER_0_37_125
*1187 FILLER_0_37_132
*1188 FILLER_0_37_136
*1189 FILLER_0_37_142
*1190 FILLER_0_37_15
*1191 FILLER_0_37_172
*1192 FILLER_0_37_198
*1193 FILLER_0_37_233
*1194 FILLER_0_37_27
*1195 FILLER_0_37_3
*1196 FILLER_0_37_334
*1197 FILLER_0_37_39
*1198 FILLER_0_37_51
*1199 FILLER_0_37_55
*1200 FILLER_0_37_57
*1201 FILLER_0_37_75
*1202 FILLER_0_37_79
*1203 FILLER_0_37_90
*1204 FILLER_0_37_94
*1205 FILLER_0_38_10
*1206 FILLER_0_38_109
*1207 FILLER_0_38_113
*1208 FILLER_0_38_125
*1209 FILLER_0_38_137
*1210 FILLER_0_38_14
*1211 FILLER_0_38_141
*1212 FILLER_0_38_153
*1213 FILLER_0_38_165
*1214 FILLER_0_38_169
*1215 FILLER_0_38_18
*1216 FILLER_0_38_181
*1217 FILLER_0_38_195
*1218 FILLER_0_38_197
*1219 FILLER_0_38_201
*1220 FILLER_0_38_213
*1221 FILLER_0_38_219
*1222 FILLER_0_38_22
*1223 FILLER_0_38_223
*1224 FILLER_0_38_289
*1225 FILLER_0_38_293
*1226 FILLER_0_38_32
*1227 FILLER_0_38_330
*1228 FILLER_0_38_38
*1229 FILLER_0_38_42
*1230 FILLER_0_38_46
*1231 FILLER_0_38_50
*1232 FILLER_0_38_54
*1233 FILLER_0_38_57
*1234 FILLER_0_38_6
*1235 FILLER_0_38_62
*1236 FILLER_0_38_74
*1237 FILLER_0_38_82
*1238 FILLER_0_38_85
*1239 FILLER_0_38_97
*1240 FILLER_0_3_105
*1241 FILLER_0_3_111
*1242 FILLER_0_3_113
*1243 FILLER_0_3_125
*1244 FILLER_0_3_137
*1245 FILLER_0_3_149
*1246 FILLER_0_3_15
*1247 FILLER_0_3_161
*1248 FILLER_0_3_167
*1249 FILLER_0_3_169
*1250 FILLER_0_3_181
*1251 FILLER_0_3_193
*1252 FILLER_0_3_205
*1253 FILLER_0_3_217
*1254 FILLER_0_3_223
*1255 FILLER_0_3_225
*1256 FILLER_0_3_237
*1257 FILLER_0_3_249
*1258 FILLER_0_3_261
*1259 FILLER_0_3_27
*1260 FILLER_0_3_273
*1261 FILLER_0_3_279
*1262 FILLER_0_3_281
*1263 FILLER_0_3_293
*1264 FILLER_0_3_3
*1265 FILLER_0_3_305
*1266 FILLER_0_3_317
*1267 FILLER_0_3_329
*1268 FILLER_0_3_39
*1269 FILLER_0_3_51
*1270 FILLER_0_3_55
*1271 FILLER_0_3_57
*1272 FILLER_0_3_69
*1273 FILLER_0_3_81
*1274 FILLER_0_3_93
*1275 FILLER_0_4_109
*1276 FILLER_0_4_121
*1277 FILLER_0_4_133
*1278 FILLER_0_4_139
*1279 FILLER_0_4_141
*1280 FILLER_0_4_15
*1281 FILLER_0_4_153
*1282 FILLER_0_4_165
*1283 FILLER_0_4_177
*1284 FILLER_0_4_189
*1285 FILLER_0_4_195
*1286 FILLER_0_4_197
*1287 FILLER_0_4_209
*1288 FILLER_0_4_221
*1289 FILLER_0_4_233
*1290 FILLER_0_4_245
*1291 FILLER_0_4_251
*1292 FILLER_0_4_253
*1293 FILLER_0_4_265
*1294 FILLER_0_4_27
*1295 FILLER_0_4_277
*1296 FILLER_0_4_289
*1297 FILLER_0_4_29
*1298 FILLER_0_4_3
*1299 FILLER_0_4_301
*1300 FILLER_0_4_307
*1301 FILLER_0_4_309
*1302 FILLER_0_4_321
*1303 FILLER_0_4_333
*1304 FILLER_0_4_41
*1305 FILLER_0_4_53
*1306 FILLER_0_4_65
*1307 FILLER_0_4_77
*1308 FILLER_0_4_83
*1309 FILLER_0_4_85
*1310 FILLER_0_4_97
*1311 FILLER_0_5_105
*1312 FILLER_0_5_111
*1313 FILLER_0_5_113
*1314 FILLER_0_5_125
*1315 FILLER_0_5_137
*1316 FILLER_0_5_149
*1317 FILLER_0_5_15
*1318 FILLER_0_5_161
*1319 FILLER_0_5_167
*1320 FILLER_0_5_169
*1321 FILLER_0_5_181
*1322 FILLER_0_5_193
*1323 FILLER_0_5_205
*1324 FILLER_0_5_217
*1325 FILLER_0_5_223
*1326 FILLER_0_5_225
*1327 FILLER_0_5_237
*1328 FILLER_0_5_249
*1329 FILLER_0_5_261
*1330 FILLER_0_5_27
*1331 FILLER_0_5_273
*1332 FILLER_0_5_279
*1333 FILLER_0_5_281
*1334 FILLER_0_5_293
*1335 FILLER_0_5_3
*1336 FILLER_0_5_305
*1337 FILLER_0_5_317
*1338 FILLER_0_5_329
*1339 FILLER_0_5_39
*1340 FILLER_0_5_51
*1341 FILLER_0_5_55
*1342 FILLER_0_5_57
*1343 FILLER_0_5_69
*1344 FILLER_0_5_81
*1345 FILLER_0_5_93
*1346 FILLER_0_6_109
*1347 FILLER_0_6_121
*1348 FILLER_0_6_133
*1349 FILLER_0_6_139
*1350 FILLER_0_6_141
*1351 FILLER_0_6_15
*1352 FILLER_0_6_153
*1353 FILLER_0_6_165
*1354 FILLER_0_6_177
*1355 FILLER_0_6_189
*1356 FILLER_0_6_195
*1357 FILLER_0_6_197
*1358 FILLER_0_6_209
*1359 FILLER_0_6_221
*1360 FILLER_0_6_233
*1361 FILLER_0_6_245
*1362 FILLER_0_6_251
*1363 FILLER_0_6_253
*1364 FILLER_0_6_265
*1365 FILLER_0_6_27
*1366 FILLER_0_6_277
*1367 FILLER_0_6_289
*1368 FILLER_0_6_29
*1369 FILLER_0_6_3
*1370 FILLER_0_6_301
*1371 FILLER_0_6_307
*1372 FILLER_0_6_309
*1373 FILLER_0_6_321
*1374 FILLER_0_6_333
*1375 FILLER_0_6_41
*1376 FILLER_0_6_53
*1377 FILLER_0_6_65
*1378 FILLER_0_6_77
*1379 FILLER_0_6_83
*1380 FILLER_0_6_85
*1381 FILLER_0_6_97
*1382 FILLER_0_7_105
*1383 FILLER_0_7_111
*1384 FILLER_0_7_113
*1385 FILLER_0_7_125
*1386 FILLER_0_7_137
*1387 FILLER_0_7_149
*1388 FILLER_0_7_15
*1389 FILLER_0_7_161
*1390 FILLER_0_7_167
*1391 FILLER_0_7_169
*1392 FILLER_0_7_181
*1393 FILLER_0_7_193
*1394 FILLER_0_7_205
*1395 FILLER_0_7_217
*1396 FILLER_0_7_223
*1397 FILLER_0_7_225
*1398 FILLER_0_7_237
*1399 FILLER_0_7_249
*1400 FILLER_0_7_261
*1401 FILLER_0_7_27
*1402 FILLER_0_7_273
*1403 FILLER_0_7_279
*1404 FILLER_0_7_281
*1405 FILLER_0_7_293
*1406 FILLER_0_7_3
*1407 FILLER_0_7_305
*1408 FILLER_0_7_317
*1409 FILLER_0_7_329
*1410 FILLER_0_7_39
*1411 FILLER_0_7_51
*1412 FILLER_0_7_55
*1413 FILLER_0_7_57
*1414 FILLER_0_7_69
*1415 FILLER_0_7_81
*1416 FILLER_0_7_93
*1417 FILLER_0_8_109
*1418 FILLER_0_8_121
*1419 FILLER_0_8_133
*1420 FILLER_0_8_139
*1421 FILLER_0_8_141
*1422 FILLER_0_8_15
*1423 FILLER_0_8_153
*1424 FILLER_0_8_165
*1425 FILLER_0_8_177
*1426 FILLER_0_8_189
*1427 FILLER_0_8_195
*1428 FILLER_0_8_197
*1429 FILLER_0_8_209
*1430 FILLER_0_8_221
*1431 FILLER_0_8_233
*1432 FILLER_0_8_245
*1433 FILLER_0_8_251
*1434 FILLER_0_8_253
*1435 FILLER_0_8_265
*1436 FILLER_0_8_27
*1437 FILLER_0_8_277
*1438 FILLER_0_8_289
*1439 FILLER_0_8_29
*1440 FILLER_0_8_3
*1441 FILLER_0_8_301
*1442 FILLER_0_8_307
*1443 FILLER_0_8_309
*1444 FILLER_0_8_321
*1445 FILLER_0_8_333
*1446 FILLER_0_8_41
*1447 FILLER_0_8_53
*1448 FILLER_0_8_65
*1449 FILLER_0_8_77
*1450 FILLER_0_8_83
*1451 FILLER_0_8_85
*1452 FILLER_0_8_97
*1453 FILLER_0_9_105
*1454 FILLER_0_9_111
*1455 FILLER_0_9_113
*1456 FILLER_0_9_125
*1457 FILLER_0_9_137
*1458 FILLER_0_9_149
*1459 FILLER_0_9_15
*1460 FILLER_0_9_161
*1461 FILLER_0_9_167
*1462 FILLER_0_9_169
*1463 FILLER_0_9_181
*1464 FILLER_0_9_193
*1465 FILLER_0_9_205
*1466 FILLER_0_9_217
*1467 FILLER_0_9_223
*1468 FILLER_0_9_225
*1469 FILLER_0_9_237
*1470 FILLER_0_9_249
*1471 FILLER_0_9_261
*1472 FILLER_0_9_27
*1473 FILLER_0_9_273
*1474 FILLER_0_9_279
*1475 FILLER_0_9_281
*1476 FILLER_0_9_293
*1477 FILLER_0_9_3
*1478 FILLER_0_9_305
*1479 FILLER_0_9_317
*1480 FILLER_0_9_329
*1481 FILLER_0_9_39
*1482 FILLER_0_9_51
*1483 FILLER_0_9_55
*1484 FILLER_0_9_57
*1485 FILLER_0_9_69
*1486 FILLER_0_9_81
*1487 FILLER_0_9_93
*1488 PHY_EDGE_ROW_0_Left_39
*1489 PHY_EDGE_ROW_0_Right_0
*1490 PHY_EDGE_ROW_10_Left_49
*1491 PHY_EDGE_ROW_10_Right_10
*1492 PHY_EDGE_ROW_11_Left_50
*1493 PHY_EDGE_ROW_11_Right_11
*1494 PHY_EDGE_ROW_12_Left_51
*1495 PHY_EDGE_ROW_12_Right_12
*1496 PHY_EDGE_ROW_13_Left_52
*1497 PHY_EDGE_ROW_13_Right_13