*SPEF "ieee 1481-1999"
*DESIGN "tt_um_fdc_chip"
*DATE "02:04:23 Saturday April 13, 2024"
*VENDOR "The OpenROAD Project"
*PROGRAM "OpenROAD"
*VERSION "0889970d1790a2617e69f253221b8bd7626e51dc"
*DESIGN_FLOW "NAME_SCOPE LOCAL" "PIN_CAP NONE"
*DIVIDER /
*DELIMITER :
*BUS_DELIMITER []
*T_UNIT 1 NS
*C_UNIT 1 PF
*R_UNIT 1 OHM
*L_UNIT 1 HENRY

*NAME_MAP
*3 clk
*4 ena
*5 rst_n
*6 ui_in[0]
*7 ui_in[1]
*8 ui_in[2]
*9 ui_in[3]
*10 ui_in[4]
*11 ui_in[5]
*12 ui_in[6]
*13 ui_in[7]
*14 uio_in[0]
*15 uio_in[1]
*16 uio_in[2]
*17 uio_in[3]
*18 uio_in[4]
*19 uio_in[5]
*20 uio_in[6]
*21 uio_in[7]
*22 net5
*23 net6
*24 net7
*25 net8
*26 net9
*27 net10
*28 net11
*29 net12
*30 net13
*31 net14
*32 net15
*33 net16
*34 net17
*35 net18
*36 net19
*37 net20
*38 uo_out[0]
*39 uo_out[1]
*40 uo_out[2]
*41 uo_out[3]
*42 uo_out[4]
*43 net21
*44 net22
*45 net23
*46 _000_
*47 _001_
*48 _002_
*49 _003_
*50 _004_
*51 _005_
*52 _006_
*53 _007_
*54 _008_
*55 _009_
*56 _010_
*57 _011_
*58 _012_
*59 _013_
*60 _014_
*61 _015_
*62 _016_
*63 _017_
*64 _018_
*65 _019_
*66 _020_
*67 _021_
*68 _022_
*69 _023_
*70 _024_
*71 _025_
*72 _026_
*73 _027_
*74 _028_
*75 _029_
*76 _030_
*77 _031_
*78 _032_
*79 _033_
*80 _034_
*81 _035_
*82 _036_
*83 _037_
*84 _038_
*85 _039_
*86 _040_
*87 _041_
*88 _042_
*89 _043_
*90 _044_
*91 _045_
*92 _046_
*93 _047_
*94 _048_
*95 _049_
*96 _050_
*97 _051_
*98 _052_
*99 _053_
*100 _054_
*101 _055_
*102 _056_
*103 _057_
*104 _058_
*105 _059_
*106 _060_
*107 _061_
*108 _062_
*109 _063_
*110 _064_
*111 _065_
*112 _066_
*113 _067_
*114 _068_
*115 _069_
*116 _070_
*117 _071_
*118 _072_
*119 _073_
*120 _074_
*121 _075_
*122 chip\.A\[0\]
*123 chip\.A\[1\]
*124 chip\.A\[2\]
*125 chip\.A\[3\]
*126 chip\.A\[4\]
*127 chip\.CLK_S
*128 chip\.VCO_S
*129 chip\.asfdc\.PTAT_COUNT\.clk
*130 chip\.asfdc\.PTAT_COUNT\.counter_gen\[0\]\.dff_instance\.D
*131 chip\.asfdc\.PTAT_COUNT\.counter_gen\[0\]\.dff_instance\.Q
*132 chip\.asfdc\.PTAT_COUNT\.counter_gen\[1\]\.dff_instance\.D
*133 chip\.asfdc\.PTAT_COUNT\.counter_gen\[1\]\.dff_instance\.Q
*134 chip\.asfdc\.PTAT_COUNT\.counter_gen\[2\]\.dff_instance\.D
*135 chip\.asfdc\.PTAT_COUNT\.counter_gen\[2\]\.dff_instance\.Q
*136 chip\.asfdc\.PTAT_COUNT\.counter_gen\[3\]\.dff_instance\.D
*137 chip\.asfdc\.PTAT_COUNT\.counter_gen\[3\]\.dff_instance\.Q
*138 chip\.asfdc\.PTAT_COUNT\.counter_gen\[4\]\.dff_instance\.D
*139 chip\.asfdc\.PTAT_COUNT\.counter_gen\[4\]\.dff_instance\.Q
*140 chip\.asfdc\.REF_COUNT\.clk
*141 chip\.asfdc\.REF_COUNT\.counter_gen\[0\]\.dff_instance\.D
*142 chip\.asfdc\.REF_COUNT\.counter_gen\[0\]\.dff_instance\.Q
*143 chip\.asfdc\.REF_COUNT\.counter_gen\[1\]\.dff_instance\.D
*144 chip\.asfdc\.REF_COUNT\.counter_gen\[1\]\.dff_instance\.Q
*145 chip\.sfdc\.count\[0\]
*146 chip\.sfdc\.count\[1\]
*147 chip\.sfdc\.count\[2\]
*148 chip\.sfdc\.count\[3\]
*149 chip\.sfdc\.count\[4\]
*150 chip\.sfdc\.q1\[0\]
*151 chip\.sfdc\.q1\[1\]
*152 chip\.sfdc\.q1\[2\]
*153 chip\.sfdc\.q1\[3\]
*154 chip\.sfdc\.q1\[4\]
*155 chip\.sfdc\.q2\[0\]
*156 chip\.sfdc\.q2\[1\]
*157 chip\.sfdc\.q2\[2\]
*158 chip\.sfdc\.q2\[3\]
*159 chip\.sfdc\.q2\[4\]
*160 net1
*161 net2
*162 net3
*163 net4
*164 FILLER_0_0_109
*165 FILLER_0_0_113
*166 FILLER_0_0_125
*167 FILLER_0_0_137
*168 FILLER_0_0_141
*169 FILLER_0_0_15
*170 FILLER_0_0_153
*171 FILLER_0_0_165
*172 FILLER_0_0_169
*173 FILLER_0_0_181
*174 FILLER_0_0_193
*175 FILLER_0_0_197
*176 FILLER_0_0_209
*177 FILLER_0_0_221
*178 FILLER_0_0_225
*179 FILLER_0_0_237
*180 FILLER_0_0_249
*181 FILLER_0_0_253
*182 FILLER_0_0_265
*183 FILLER_0_0_27
*184 FILLER_0_0_277
*185 FILLER_0_0_281
*186 FILLER_0_0_29
*187 FILLER_0_0_293
*188 FILLER_0_0_3
*189 FILLER_0_0_305
*190 FILLER_0_0_309
*191 FILLER_0_0_321
*192 FILLER_0_0_333
*193 FILLER_0_0_41
*194 FILLER_0_0_53
*195 FILLER_0_0_57
*196 FILLER_0_0_69
*197 FILLER_0_0_81
*198 FILLER_0_0_85
*199 FILLER_0_0_97
*200 FILLER_0_10_109
*201 FILLER_0_10_121
*202 FILLER_0_10_133
*203 FILLER_0_10_139
*204 FILLER_0_10_141
*205 FILLER_0_10_15
*206 FILLER_0_10_153
*207 FILLER_0_10_165
*208 FILLER_0_10_177
*209 FILLER_0_10_189
*210 FILLER_0_10_195
*211 FILLER_0_10_197
*212 FILLER_0_10_209
*213 FILLER_0_10_221
*214 FILLER_0_10_233
*215 FILLER_0_10_245
*216 FILLER_0_10_251
*217 FILLER_0_10_253
*218 FILLER_0_10_265
*219 FILLER_0_10_27
*220 FILLER_0_10_277
*221 FILLER_0_10_289
*222 FILLER_0_10_29
*223 FILLER_0_10_3
*224 FILLER_0_10_301
*225 FILLER_0_10_307
*226 FILLER_0_10_309
*227 FILLER_0_10_321
*228 FILLER_0_10_333
*229 FILLER_0_10_41
*230 FILLER_0_10_53
*231 FILLER_0_10_65
*232 FILLER_0_10_77
*233 FILLER_0_10_83
*234 FILLER_0_10_85
*235 FILLER_0_10_97
*236 FILLER_0_11_105
*237 FILLER_0_11_111
*238 FILLER_0_11_113
*239 FILLER_0_11_125
*240 FILLER_0_11_137
*241 FILLER_0_11_149
*242 FILLER_0_11_15
*243 FILLER_0_11_161
*244 FILLER_0_11_167
*245 FILLER_0_11_169
*246 FILLER_0_11_181
*247 FILLER_0_11_193
*248 FILLER_0_11_205
*249 FILLER_0_11_217
*250 FILLER_0_11_223
*251 FILLER_0_11_225
*252 FILLER_0_11_237
*253 FILLER_0_11_249
*254 FILLER_0_11_261
*255 FILLER_0_11_27
*256 FILLER_0_11_273
*257 FILLER_0_11_279
*258 FILLER_0_11_281
*259 FILLER_0_11_293
*260 FILLER_0_11_3
*261 FILLER_0_11_305
*262 FILLER_0_11_317
*263 FILLER_0_11_329
*264 FILLER_0_11_39
*265 FILLER_0_11_51
*266 FILLER_0_11_55
*267 FILLER_0_11_57
*268 FILLER_0_11_69
*269 FILLER_0_11_81
*270 FILLER_0_11_93
*271 FILLER_0_12_109
*272 FILLER_0_12_121
*273 FILLER_0_12_133
*274 FILLER_0_12_139
*275 FILLER_0_12_141
*276 FILLER_0_12_15
*277 FILLER_0_12_153
*278 FILLER_0_12_165
*279 FILLER_0_12_177
*280 FILLER_0_12_189
*281 FILLER_0_12_195
*282 FILLER_0_12_197
*283 FILLER_0_12_209
*284 FILLER_0_12_221
*285 FILLER_0_12_233
*286 FILLER_0_12_245
*287 FILLER_0_12_251
*288 FILLER_0_12_253
*289 FILLER_0_12_265
*290 FILLER_0_12_27
*291 FILLER_0_12_277
*292 FILLER_0_12_289
*293 FILLER_0_12_29
*294 FILLER_0_12_3
*295 FILLER_0_12_301
*296 FILLER_0_12_307
*297 FILLER_0_12_309
*298 FILLER_0_12_321
*299 FILLER_0_12_333
*300 FILLER_0_12_41
*301 FILLER_0_12_53
*302 FILLER_0_12_65
*303 FILLER_0_12_77
*304 FILLER_0_12_83
*305 FILLER_0_12_85
*306 FILLER_0_12_97
*307 FILLER_0_13_105
*308 FILLER_0_13_111
*309 FILLER_0_13_113
*310 FILLER_0_13_125
*311 FILLER_0_13_137
*312 FILLER_0_13_149
*313 FILLER_0_13_15
*314 FILLER_0_13_161
*315 FILLER_0_13_167
*316 FILLER_0_13_169
*317 FILLER_0_13_181
*318 FILLER_0_13_193
*319 FILLER_0_13_205
*320 FILLER_0_13_217
*321 FILLER_0_13_223
*322 FILLER_0_13_225
*323 FILLER_0_13_237
*324 FILLER_0_13_249
*325 FILLER_0_13_261
*326 FILLER_0_13_27
*327 FILLER_0_13_273
*328 FILLER_0_13_279
*329 FILLER_0_13_281
*330 FILLER_0_13_293
*331 FILLER_0_13_3
*332 FILLER_0_13_305
*333 FILLER_0_13_317
*334 FILLER_0_13_329
*335 FILLER_0_13_39
*336 FILLER_0_13_51
*337 FILLER_0_13_55
*338 FILLER_0_13_57
*339 FILLER_0_13_69
*340 FILLER_0_13_81
*341 FILLER_0_13_93
*342 FILLER_0_14_109
*343 FILLER_0_14_121
*344 FILLER_0_14_133
*345 FILLER_0_14_139
*346 FILLER_0_14_141
*347 FILLER_0_14_15
*348 FILLER_0_14_153
*349 FILLER_0_14_165
*350 FILLER_0_14_177
*351 FILLER_0_14_189
*352 FILLER_0_14_195
*353 FILLER_0_14_197
*354 FILLER_0_14_209
*355 FILLER_0_14_221
*356 FILLER_0_14_233
*357 FILLER_0_14_245
*358 FILLER_0_14_251
*359 FILLER_0_14_253
*360 FILLER_0_14_265
*361 FILLER_0_14_27
*362 FILLER_0_14_277
*363 FILLER_0_14_289
*364 FILLER_0_14_29
*365 FILLER_0_14_3
*366 FILLER_0_14_301
*367 FILLER_0_14_307
*368 FILLER_0_14_309
*369 FILLER_0_14_321
*370 FILLER_0_14_333
*371 FILLER_0_14_41
*372 FILLER_0_14_53
*373 FILLER_0_14_65
*374 FILLER_0_14_77
*375 FILLER_0_14_83
*376 FILLER_0_14_85
*377 FILLER_0_14_97
*378 FILLER_0_15_105
*379 FILLER_0_15_111
*380 FILLER_0_15_113
*381 FILLER_0_15_125
*382 FILLER_0_15_137
*383 FILLER_0_15_149
*384 FILLER_0_15_15
*385 FILLER_0_15_161
*386 FILLER_0_15_167
*387 FILLER_0_15_169
*388 FILLER_0_15_181
*389 FILLER_0_15_193
*390 FILLER_0_15_205
*391 FILLER_0_15_217
*392 FILLER_0_15_223
*393 FILLER_0_15_225
*394 FILLER_0_15_237
*395 FILLER_0_15_249
*396 FILLER_0_15_261
*397 FILLER_0_15_27
*398 FILLER_0_15_273
*399 FILLER_0_15_279
*400 FILLER_0_15_281
*401 FILLER_0_15_293
*402 FILLER_0_15_3
*403 FILLER_0_15_305
*404 FILLER_0_15_317
*405 FILLER_0_15_329
*406 FILLER_0_15_39
*407 FILLER_0_15_51
*408 FILLER_0_15_55
*409 FILLER_0_15_57
*410 FILLER_0_15_69
*411 FILLER_0_15_81
*412 FILLER_0_15_93
*413 FILLER_0_16_109
*414 FILLER_0_16_121
*415 FILLER_0_16_133
*416 FILLER_0_16_139
*417 FILLER_0_16_141
*418 FILLER_0_16_15
*419 FILLER_0_16_153
*420 FILLER_0_16_165
*421 FILLER_0_16_177
*422 FILLER_0_16_189
*423 FILLER_0_16_195
*424 FILLER_0_16_197
*425 FILLER_0_16_209
*426 FILLER_0_16_221
*427 FILLER_0_16_233
*428 FILLER_0_16_245
*429 FILLER_0_16_251
*430 FILLER_0_16_253
*431 FILLER_0_16_265
*432 FILLER_0_16_27
*433 FILLER_0_16_277
*434 FILLER_0_16_289
*435 FILLER_0_16_29
*436 FILLER_0_16_3
*437 FILLER_0_16_301
*438 FILLER_0_16_307
*439 FILLER_0_16_309
*440 FILLER_0_16_321
*441 FILLER_0_16_333
*442 FILLER_0_16_41
*443 FILLER_0_16_53
*444 FILLER_0_16_65
*445 FILLER_0_16_77
*446 FILLER_0_16_83
*447 FILLER_0_16_85
*448 FILLER_0_16_97
*449 FILLER_0_17_105
*450 FILLER_0_17_111
*451 FILLER_0_17_113
*452 FILLER_0_17_125
*453 FILLER_0_17_137
*454 FILLER_0_17_149
*455 FILLER_0_17_15
*456 FILLER_0_17_161
*457 FILLER_0_17_167
*458 FILLER_0_17_169
*459 FILLER_0_17_181
*460 FILLER_0_17_193
*461 FILLER_0_17_205
*462 FILLER_0_17_217
*463 FILLER_0_17_223
*464 FILLER_0_17_225
*465 FILLER_0_17_237
*466 FILLER_0_17_249
*467 FILLER_0_17_261
*468 FILLER_0_17_27
*469 FILLER_0_17_273
*470 FILLER_0_17_279
*471 FILLER_0_17_281
*472 FILLER_0_17_293
*473 FILLER_0_17_3
*474 FILLER_0_17_305
*475 FILLER_0_17_317
*476 FILLER_0_17_329
*477 FILLER_0_17_39
*478 FILLER_0_17_51
*479 FILLER_0_17_55
*480 FILLER_0_17_57
*481 FILLER_0_17_69
*482 FILLER_0_17_81
*483 FILLER_0_17_93
*484 FILLER_0_18_109
*485 FILLER_0_18_121
*486 FILLER_0_18_133
*487 FILLER_0_18_139
*488 FILLER_0_18_141
*489 FILLER_0_18_15
*490 FILLER_0_18_153
*491 FILLER_0_18_165
*492 FILLER_0_18_177
*493 FILLER_0_18_189
*494 FILLER_0_18_195
*495 FILLER_0_18_197
*496 FILLER_0_18_209
*497 FILLER_0_18_221
*498 FILLER_0_18_233
*499 FILLER_0_18_245
*500 FILLER_0_18_251
*501 FILLER_0_18_253
*502 FILLER_0_18_265
*503 FILLER_0_18_27
*504 FILLER_0_18_277
*505 FILLER_0_18_289
*506 FILLER_0_18_29
*507 FILLER_0_18_3
*508 FILLER_0_18_301
*509 FILLER_0_18_307
*510 FILLER_0_18_309
*511 FILLER_0_18_321
*512 FILLER_0_18_333
*513 FILLER_0_18_41
*514 FILLER_0_18_53
*515 FILLER_0_18_65
*516 FILLER_0_18_77
*517 FILLER_0_18_83
*518 FILLER_0_18_85
*519 FILLER_0_18_97
*520 FILLER_0_19_105
*521 FILLER_0_19_111
*522 FILLER_0_19_113
*523 FILLER_0_19_125
*524 FILLER_0_19_137
*525 FILLER_0_19_149
*526 FILLER_0_19_15
*527 FILLER_0_19_161
*528 FILLER_0_19_167
*529 FILLER_0_19_169
*530 FILLER_0_19_181
*531 FILLER_0_19_193
*532 FILLER_0_19_205
*533 FILLER_0_19_217
*534 FILLER_0_19_223
*535 FILLER_0_19_225
*536 FILLER_0_19_237
*537 FILLER_0_19_249
*538 FILLER_0_19_261
*539 FILLER_0_19_27
*540 FILLER_0_19_273
*541 FILLER_0_19_279
*542 FILLER_0_19_281
*543 FILLER_0_19_293
*544 FILLER_0_19_3
*545 FILLER_0_19_305
*546 FILLER_0_19_317
*547 FILLER_0_19_329
*548 FILLER_0_19_39
*549 FILLER_0_19_51
*550 FILLER_0_19_55
*551 FILLER_0_19_57
*552 FILLER_0_19_69
*553 FILLER_0_19_81
*554 FILLER_0_19_93
*555 FILLER_0_1_105
*556 FILLER_0_1_111
*557 FILLER_0_1_113
*558 FILLER_0_1_125
*559 FILLER_0_1_137
*560 FILLER_0_1_149
*561 FILLER_0_1_15
*562 FILLER_0_1_161
*563 FILLER_0_1_167
*564 FILLER_0_1_169
*565 FILLER_0_1_181
*566 FILLER_0_1_193
*567 FILLER_0_1_205
*568 FILLER_0_1_217
*569 FILLER_0_1_223
*570 FILLER_0_1_225
*571 FILLER_0_1_237
*572 FILLER_0_1_249
*573 FILLER_0_1_261
*574 FILLER_0_1_27
*575 FILLER_0_1_273
*576 FILLER_0_1_279
*577 FILLER_0_1_281
*578 FILLER_0_1_293
*579 FILLER_0_1_3
*580 FILLER_0_1_305
*581 FILLER_0_1_317
*582 FILLER_0_1_329
*583 FILLER_0_1_39
*584 FILLER_0_1_51
*585 FILLER_0_1_55
*586 FILLER_0_1_57
*587 FILLER_0_1_69
*588 FILLER_0_1_81
*589 FILLER_0_1_93
*590 FILLER_0_20_109
*591 FILLER_0_20_121
*592 FILLER_0_20_133
*593 FILLER_0_20_139
*594 FILLER_0_20_141
*595 FILLER_0_20_15
*596 FILLER_0_20_153
*597 FILLER_0_20_165
*598 FILLER_0_20_177
*599 FILLER_0_20_189
*600 FILLER_0_20_195
*601 FILLER_0_20_197
*602 FILLER_0_20_209
*603 FILLER_0_20_221
*604 FILLER_0_20_233
*605 FILLER_0_20_245
*606 FILLER_0_20_251
*607 FILLER_0_20_253
*608 FILLER_0_20_265
*609 FILLER_0_20_27
*610 FILLER_0_20_277
*611 FILLER_0_20_289
*612 FILLER_0_20_29
*613 FILLER_0_20_3
*614 FILLER_0_20_301
*615 FILLER_0_20_307
*616 FILLER_0_20_309
*617 FILLER_0_20_321
*618 FILLER_0_20_333
*619 FILLER_0_20_41
*620 FILLER_0_20_53
*621 FILLER_0_20_65
*622 FILLER_0_20_77
*623 FILLER_0_20_83
*624 FILLER_0_20_85
*625 FILLER_0_20_97
*626 FILLER_0_21_105
*627 FILLER_0_21_111
*628 FILLER_0_21_113
*629 FILLER_0_21_125
*630 FILLER_0_21_137
*631 FILLER_0_21_149
*632 FILLER_0_21_15
*633 FILLER_0_21_161
*634 FILLER_0_21_167
*635 FILLER_0_21_169
*636 FILLER_0_21_181
*637 FILLER_0_21_193
*638 FILLER_0_21_205
*639 FILLER_0_21_217
*640 FILLER_0_21_223
*641 FILLER_0_21_225
*642 FILLER_0_21_237
*643 FILLER_0_21_249
*644 FILLER_0_21_261
*645 FILLER_0_21_27
*646 FILLER_0_21_273
*647 FILLER_0_21_279
*648 FILLER_0_21_281
*649 FILLER_0_21_293
*650 FILLER_0_21_3
*651 FILLER_0_21_305
*652 FILLER_0_21_317
*653 FILLER_0_21_329
*654 FILLER_0_21_39
*655 FILLER_0_21_51
*656 FILLER_0_21_55
*657 FILLER_0_21_57
*658 FILLER_0_21_69
*659 FILLER_0_21_81
*660 FILLER_0_21_93
*661 FILLER_0_22_109
*662 FILLER_0_22_121
*663 FILLER_0_22_133
*664 FILLER_0_22_139
*665 FILLER_0_22_141
*666 FILLER_0_22_15
*667 FILLER_0_22_153
*668 FILLER_0_22_165
*669 FILLER_0_22_177
*670 FILLER_0_22_189
*671 FILLER_0_22_195
*672 FILLER_0_22_197
*673 FILLER_0_22_209
*674 FILLER_0_22_221
*675 FILLER_0_22_233
*676 FILLER_0_22_245
*677 FILLER_0_22_251
*678 FILLER_0_22_253
*679 FILLER_0_22_265
*680 FILLER_0_22_27
*681 FILLER_0_22_277
*682 FILLER_0_22_289
*683 FILLER_0_22_29
*684 FILLER_0_22_3
*685 FILLER_0_22_301
*686 FILLER_0_22_307
*687 FILLER_0_22_309
*688 FILLER_0_22_321
*689 FILLER_0_22_333
*690 FILLER_0_22_41
*691 FILLER_0_22_53
*692 FILLER_0_22_65
*693 FILLER_0_22_77
*694 FILLER_0_22_83
*695 FILLER_0_22_85
*696 FILLER_0_22_97
*697 FILLER_0_23_105
*698 FILLER_0_23_111
*699 FILLER_0_23_113
*700 FILLER_0_23_125
*701 FILLER_0_23_137
*702 FILLER_0_23_149
*703 FILLER_0_23_15
*704 FILLER_0_23_161
*705 FILLER_0_23_167
*706 FILLER_0_23_169
*707 FILLER_0_23_181
*708 FILLER_0_23_193
*709 FILLER_0_23_205
*710 FILLER_0_23_217
*711 FILLER_0_23_223
*712 FILLER_0_23_225
*713 FILLER_0_23_237
*714 FILLER_0_23_249
*715 FILLER_0_23_261
*716 FILLER_0_23_27
*717 FILLER_0_23_273
*718 FILLER_0_23_279
*719 FILLER_0_23_281
*720 FILLER_0_23_293
*721 FILLER_0_23_3
*722 FILLER_0_23_305
*723 FILLER_0_23_317
*724 FILLER_0_23_329
*725 FILLER_0_23_39
*726 FILLER_0_23_51
*727 FILLER_0_23_55
*728 FILLER_0_23_57
*729 FILLER_0_23_69
*730 FILLER_0_23_81
*731 FILLER_0_23_93
*732 FILLER_0_24_109
*733 FILLER_0_24_121
*734 FILLER_0_24_133
*735 FILLER_0_24_139
*736 FILLER_0_24_141
*737 FILLER_0_24_15
*738 FILLER_0_24_153
*739 FILLER_0_24_165
*740 FILLER_0_24_177
*741 FILLER_0_24_189
*742 FILLER_0_24_195
*743 FILLER_0_24_197
*744 FILLER_0_24_209
*745 FILLER_0_24_221
*746 FILLER_0_24_233
*747 FILLER_0_24_245
*748 FILLER_0_24_251
*749 FILLER_0_24_253
*750 FILLER_0_24_265
*751 FILLER_0_24_27
*752 FILLER_0_24_277
*753 FILLER_0_24_289
*754 FILLER_0_24_29
*755 FILLER_0_24_3
*756 FILLER_0_24_301
*757 FILLER_0_24_307
*758 FILLER_0_24_309
*759 FILLER_0_24_321
*760 FILLER_0_24_333
*761 FILLER_0_24_41
*762 FILLER_0_24_53
*763 FILLER_0_24_65
*764 FILLER_0_24_77
*765 FILLER_0_24_83
*766 FILLER_0_24_85
*767 FILLER_0_24_97
*768 FILLER_0_25_105
*769 FILLER_0_25_111
*770 FILLER_0_25_113
*771 FILLER_0_25_125
*772 FILLER_0_25_137
*773 FILLER_0_25_149
*774 FILLER_0_25_15
*775 FILLER_0_25_161
*776 FILLER_0_25_167
*777 FILLER_0_25_169
*778 FILLER_0_25_181
*779 FILLER_0_25_193
*780 FILLER_0_25_205
*781 FILLER_0_25_217
*782 FILLER_0_25_223
*783 FILLER_0_25_225
*784 FILLER_0_25_237
*785 FILLER_0_25_249
*786 FILLER_0_25_261
*787 FILLER_0_25_27
*788 FILLER_0_25_273
*789 FILLER_0_25_279
*790 FILLER_0_25_281
*791 FILLER_0_25_293
*792 FILLER_0_25_3
*793 FILLER_0_25_305
*794 FILLER_0_25_317
*795 FILLER_0_25_329
*796 FILLER_0_25_39
*797 FILLER_0_25_51
*798 FILLER_0_25_55
*799 FILLER_0_25_57
*800 FILLER_0_25_69
*801 FILLER_0_25_81
*802 FILLER_0_25_93
*803 FILLER_0_26_109
*804 FILLER_0_26_121
*805 FILLER_0_26_133
*806 FILLER_0_26_139
*807 FILLER_0_26_141
*808 FILLER_0_26_15
*809 FILLER_0_26_153
*810 FILLER_0_26_165
*811 FILLER_0_26_177
*812 FILLER_0_26_189
*813 FILLER_0_26_195
*814 FILLER_0_26_197
*815 FILLER_0_26_209
*816 FILLER_0_26_221
*817 FILLER_0_26_233
*818 FILLER_0_26_245
*819 FILLER_0_26_251
*820 FILLER_0_26_253
*821 FILLER_0_26_265
*822 FILLER_0_26_27
*823 FILLER_0_26_277
*824 FILLER_0_26_289
*825 FILLER_0_26_29
*826 FILLER_0_26_3
*827 FILLER_0_26_301
*828 FILLER_0_26_307
*829 FILLER_0_26_309
*830 FILLER_0_26_321
*831 FILLER_0_26_333
*832 FILLER_0_26_41
*833 FILLER_0_26_53
*834 FILLER_0_26_65
*835 FILLER_0_26_77
*836 FILLER_0_26_83
*837 FILLER_0_26_85
*838 FILLER_0_26_97
*839 FILLER_0_27_105
*840 FILLER_0_27_111
*841 FILLER_0_27_113
*842 FILLER_0_27_125
*843 FILLER_0_27_137
*844 FILLER_0_27_149
*845 FILLER_0_27_15
*846 FILLER_0_27_161
*847 FILLER_0_27_167
*848 FILLER_0_27_169
*849 FILLER_0_27_181
*850 FILLER_0_27_193
*851 FILLER_0_27_205
*852 FILLER_0_27_217
*853 FILLER_0_27_223
*854 FILLER_0_27_225
*855 FILLER_0_27_237
*856 FILLER_0_27_249
*857 FILLER_0_27_261
*858 FILLER_0_27_27
*859 FILLER_0_27_273
*860 FILLER_0_27_279
*861 FILLER_0_27_281
*862 FILLER_0_27_293
*863 FILLER_0_27_3
*864 FILLER_0_27_305
*865 FILLER_0_27_317
*866 FILLER_0_27_329
*867 FILLER_0_27_39
*868 FILLER_0_27_51
*869 FILLER_0_27_55
*870 FILLER_0_27_57
*871 FILLER_0_27_69
*872 FILLER_0_27_81
*873 FILLER_0_27_93
*874 FILLER_0_28_109
*875 FILLER_0_28_121
*876 FILLER_0_28_133
*877 FILLER_0_28_139
*878 FILLER_0_28_141
*879 FILLER_0_28_15
*880 FILLER_0_28_153
*881 FILLER_0_28_165
*882 FILLER_0_28_177
*883 FILLER_0_28_195
*884 FILLER_0_28_203
*885 FILLER_0_28_231
*886 FILLER_0_28_237
*887 FILLER_0_28_241
*888 FILLER_0_28_249
*889 FILLER_0_28_256
*890 FILLER_0_28_263
*891 FILLER_0_28_27
*892 FILLER_0_28_275
*893 FILLER_0_28_287
*894 FILLER_0_28_29
*895 FILLER_0_28_299
*896 FILLER_0_28_3
*897 FILLER_0_28_307
*898 FILLER_0_28_309
*899 FILLER_0_28_321
*900 FILLER_0_28_333
*901 FILLER_0_28_41
*902 FILLER_0_28_53
*903 FILLER_0_28_65
*904 FILLER_0_28_77
*905 FILLER_0_28_83
*906 FILLER_0_28_85
*907 FILLER_0_28_97
*908 FILLER_0_29_105
*909 FILLER_0_29_111
*910 FILLER_0_29_113
*911 FILLER_0_29_125
*912 FILLER_0_29_137
*913 FILLER_0_29_149
*914 FILLER_0_29_15
*915 FILLER_0_29_161
*916 FILLER_0_29_167
*917 FILLER_0_29_169
*918 FILLER_0_29_175
*919 FILLER_0_29_213
*920 FILLER_0_29_262
*921 FILLER_0_29_27
*922 FILLER_0_29_281
*923 FILLER_0_29_293
*924 FILLER_0_29_3
*925 FILLER_0_29_305
*926 FILLER_0_29_317
*927 FILLER_0_29_329
*928 FILLER_0_29_39
*929 FILLER_0_29_51
*930 FILLER_0_29_55
*931 FILLER_0_29_57
*932 FILLER_0_29_69
*933 FILLER_0_29_81
*934 FILLER_0_29_93
*935 FILLER_0_2_109
*936 FILLER_0_2_121
*937 FILLER_0_2_133
*938 FILLER_0_2_139
*939 FILLER_0_2_141
*940 FILLER_0_2_15
*941 FILLER_0_2_153
*942 FILLER_0_2_165
*943 FILLER_0_2_177
*944 FILLER_0_2_189
*945 FILLER_0_2_195
*946 FILLER_0_2_197
*947 FILLER_0_2_209
*948 FILLER_0_2_221
*949 FILLER_0_2_233
*950 FILLER_0_2_245
*951 FILLER_0_2_251
*952 FILLER_0_2_253
*953 FILLER_0_2_265
*954 FILLER_0_2_27
*955 FILLER_0_2_277
*956 FILLER_0_2_289
*957 FILLER_0_2_29
*958 FILLER_0_2_3
*959 FILLER_0_2_301
*960 FILLER_0_2_307
*961 FILLER_0_2_309
*962 FILLER_0_2_321
*963 FILLER_0_2_333
*964 FILLER_0_2_41
*965 FILLER_0_2_53
*966 FILLER_0_2_65
*967 FILLER_0_2_77
*968 FILLER_0_2_83
*969 FILLER_0_2_85
*970 FILLER_0_2_97
*971 FILLER_0_30_109
*972 FILLER_0_30_121
*973 FILLER_0_30_133
*974 FILLER_0_30_139
*975 FILLER_0_30_141
*976 FILLER_0_30_15
*977 FILLER_0_30_153
*978 FILLER_0_30_165
*979 FILLER_0_30_177
*980 FILLER_0_30_195
*981 FILLER_0_30_206
*982 FILLER_0_30_218
*983 FILLER_0_30_228
*984 FILLER_0_30_249
*985 FILLER_0_30_253
*986 FILLER_0_30_27
*987 FILLER_0_30_29
*988 FILLER_0_30_291
*989 FILLER_0_30_3
*990 FILLER_0_30_303
*991 FILLER_0_30_307
*992 FILLER_0_30_309
*993 FILLER_0_30_321
*994 FILLER_0_30_333
*995 FILLER_0_30_41
*996 FILLER_0_30_53
*997 FILLER_0_30_65
*998 FILLER_0_30_77
*999 FILLER_0_30_83
*1000 FILLER_0_30_85
*1001 FILLER_0_30_97
*1002 FILLER_0_31_105
*1003 FILLER_0_31_111
*1004 FILLER_0_31_113
*1005 FILLER_0_31_125
*1006 FILLER_0_31_137
*1007 FILLER_0_31_149
*1008 FILLER_0_31_15
*1009 FILLER_0_31_161
*1010 FILLER_0_31_167
*1011 FILLER_0_31_169
*1012 FILLER_0_31_175
*1013 FILLER_0_31_199
*1014 FILLER_0_31_211
*1015 FILLER_0_31_223
*1016 FILLER_0_31_225
*1017 FILLER_0_31_237
*1018 FILLER_0_31_249
*1019 FILLER_0_31_256
*1020 FILLER_0_31_264
*1021 FILLER_0_31_27
*1022 FILLER_0_31_281
*1023 FILLER_0_31_293
*1024 FILLER_0_31_3
*1025 FILLER_0_31_305
*1026 FILLER_0_31_317
*1027 FILLER_0_31_329
*1028 FILLER_0_31_39
*1029 FILLER_0_31_51
*1030 FILLER_0_31_55
*1031 FILLER_0_31_57
*1032 FILLER_0_31_69
*1033 FILLER_0_31_81
*1034 FILLER_0_31_93
*1035 FILLER_0_32_109
*1036 FILLER_0_32_121
*1037 FILLER_0_32_133
*1038 FILLER_0_32_139
*1039 FILLER_0_32_141
*1040 FILLER_0_32_15
*1041 FILLER_0_32_153
*1042 FILLER_0_32_165
*1043 FILLER_0_32_173
*1044 FILLER_0_32_186
*1045 FILLER_0_32_190
*1046 FILLER_0_32_197
*1047 FILLER_0_32_209
*1048 FILLER_0_32_215
*1049 FILLER_0_32_227
*1050 FILLER_0_32_239
*1051 FILLER_0_32_251
*1052 FILLER_0_32_253
*1053 FILLER_0_32_27
*1054 FILLER_0_32_286
*1055 FILLER_0_32_29
*1056 FILLER_0_32_298
*1057 FILLER_0_32_3
*1058 FILLER_0_32_306
*1059 FILLER_0_32_309
*1060 FILLER_0_32_321
*1061 FILLER_0_32_333
*1062 FILLER_0_32_41
*1063 FILLER_0_32_53
*1064 FILLER_0_32_65
*1065 FILLER_0_32_77
*1066 FILLER_0_32_83
*1067 FILLER_0_32_85
*1068 FILLER_0_32_97
*1069 FILLER_0_33_105
*1070 FILLER_0_33_111
*1071 FILLER_0_33_113
*1072 FILLER_0_33_125
*1073 FILLER_0_33_148
*1074 FILLER_0_33_15
*1075 FILLER_0_33_156
*1076 FILLER_0_33_164
*1077 FILLER_0_33_169
*1078 FILLER_0_33_184
*1079 FILLER_0_33_196
*1080 FILLER_0_33_204
*1081 FILLER_0_33_231
*1082 FILLER_0_33_239
*1083 FILLER_0_33_257
*1084 FILLER_0_33_27
*1085 FILLER_0_33_279
*1086 FILLER_0_33_292
*1087 FILLER_0_33_3
*1088 FILLER_0_33_304
*1089 FILLER_0_33_316
*1090 FILLER_0_33_328
*1091 FILLER_0_33_334
*1092 FILLER_0_33_39
*1093 FILLER_0_33_51
*1094 FILLER_0_33_55
*1095 FILLER_0_33_57
*1096 FILLER_0_33_69
*1097 FILLER_0_33_81
*1098 FILLER_0_33_93
*1099 FILLER_0_34_109
*1100 FILLER_0_34_121
*1101 FILLER_0_34_133
*1102 FILLER_0_34_141
*1103 FILLER_0_34_15
*1104 FILLER_0_34_183
*1105 FILLER_0_34_195
*1106 FILLER_0_34_197
*1107 FILLER_0_34_203
*1108 FILLER_0_34_253
*1109 FILLER_0_34_27
*1110 FILLER_0_34_284
*1111 FILLER_0_34_29
*1112 FILLER_0_34_296
*1113 FILLER_0_34_3
*1114 FILLER_0_34_309
*1115 FILLER_0_34_321
*1116 FILLER_0_34_333
*1117 FILLER_0_34_41
*1118 FILLER_0_34_53
*1119 FILLER_0_34_65
*1120 FILLER_0_34_77
*1121 FILLER_0_34_83
*1122 FILLER_0_34_85
*1123 FILLER_0_34_97
*1124 FILLER_0_35_105
*1125 FILLER_0_35_111
*1126 FILLER_0_35_113
*1127 FILLER_0_35_125
*1128 FILLER_0_35_137
*1129 FILLER_0_35_15
*1130 FILLER_0_35_166
*1131 FILLER_0_35_169
*1132 FILLER_0_35_179
*1133 FILLER_0_35_191
*1134 FILLER_0_35_203
*1135 FILLER_0_35_223
*1136 FILLER_0_35_225
*1137 FILLER_0_35_237
*1138 FILLER_0_35_241
*1139 FILLER_0_35_246
*1140 FILLER_0_35_258
*1141 FILLER_0_35_266
*1142 FILLER_0_35_27
*1143 FILLER_0_35_278
*1144 FILLER_0_35_281
*1145 FILLER_0_35_293
*1146 FILLER_0_35_3
*1147 FILLER_0_35_305
*1148 FILLER_0_35_317
*1149 FILLER_0_35_329
*1150 FILLER_0_35_39
*1151 FILLER_0_35_51
*1152 FILLER_0_35_55
*1153 FILLER_0_35_57
*1154 FILLER_0_35_69
*1155 FILLER_0_35_81
*1156 FILLER_0_35_93
*1157 FILLER_0_36_109
*1158 FILLER_0_36_117
*1159 FILLER_0_36_144
*1160 FILLER_0_36_15
*1161 FILLER_0_36_193
*1162 FILLER_0_36_197
*1163 FILLER_0_36_227
*1164 FILLER_0_36_250
*1165 FILLER_0_36_256
*1166 FILLER_0_36_269
*1167 FILLER_0_36_27
*1168 FILLER_0_36_278
*1169 FILLER_0_36_29
*1170 FILLER_0_36_290
*1171 FILLER_0_36_3
*1172 FILLER_0_36_302
*1173 FILLER_0_36_309
*1174 FILLER_0_36_321
*1175 FILLER_0_36_333
*1176 FILLER_0_36_41
*1177 FILLER_0_36_53
*1178 FILLER_0_36_65
*1179 FILLER_0_36_77
*1180 FILLER_0_36_83
*1181 FILLER_0_36_85
*1182 FILLER_0_36_97
*1183 FILLER_0_37_105
*1184 FILLER_0_37_111
*1185 FILLER_0_37_113
*1186 FILLER_0_37_140
*1187 FILLER_0_37_144
*1188 FILLER_0_37_15
*1189 FILLER_0_37_193
*1190 FILLER_0_37_197
*1191 FILLER_0_37_222
*1192 FILLER_0_37_228
*1193 FILLER_0_37_27
*1194 FILLER_0_37_276
*1195 FILLER_0_37_287
*1196 FILLER_0_37_299
*1197 FILLER_0_37_3
*1198 FILLER_0_37_311
*1199 FILLER_0_37_323
*1200 FILLER_0_37_39
*1201 FILLER_0_37_51
*1202 FILLER_0_37_55
*1203 FILLER_0_37_57
*1204 FILLER_0_37_69
*1205 FILLER_0_37_81
*1206 FILLER_0_37_93
*1207 FILLER_0_38_10
*1208 FILLER_0_38_102
*1209 FILLER_0_38_106
*1210 FILLER_0_38_110
*1211 FILLER_0_38_113
*1212 FILLER_0_38_118
*1213 FILLER_0_38_122
*1214 FILLER_0_38_126
*1215 FILLER_0_38_135
*1216 FILLER_0_38_139
*1217 FILLER_0_38_14
*1218 FILLER_0_38_144
*1219 FILLER_0_38_150
*1220 FILLER_0_38_157
*1221 FILLER_0_38_166
*1222 FILLER_0_38_179
*1223 FILLER_0_38_18
*1224 FILLER_0_38_191
*1225 FILLER_0_38_195
*1226 FILLER_0_38_197
*1227 FILLER_0_38_22
*1228 FILLER_0_38_220
*1229 FILLER_0_38_225
*1230 FILLER_0_38_237
*1231 FILLER_0_38_241
*1232 FILLER_0_38_250
*1233 FILLER_0_38_253
*1234 FILLER_0_38_258
*1235 FILLER_0_38_267
*1236 FILLER_0_38_279
*1237 FILLER_0_38_281
*1238 FILLER_0_38_289
*1239 FILLER_0_38_294
*1240 FILLER_0_38_298
*1241 FILLER_0_38_302
*1242 FILLER_0_38_312
*1243 FILLER_0_38_32
*1244 FILLER_0_38_321
*1245 FILLER_0_38_333
*1246 FILLER_0_38_38
*1247 FILLER_0_38_42
*1248 FILLER_0_38_46
*1249 FILLER_0_38_50
*1250 FILLER_0_38_54
*1251 FILLER_0_38_57
*1252 FILLER_0_38_6
*1253 FILLER_0_38_62
*1254 FILLER_0_38_66
*1255 FILLER_0_38_70
*1256 FILLER_0_38_74
*1257 FILLER_0_38_78
*1258 FILLER_0_38_88
*1259 FILLER_0_38_94
*1260 FILLER_0_38_98
*1261 FILLER_0_3_105
*1262 FILLER_0_3_111
*1263 FILLER_0_3_113
*1264 FILLER_0_3_125
*1265 FILLER_0_3_137
*1266 FILLER_0_3_149
*1267 FILLER_0_3_15
*1268 FILLER_0_3_161
*1269 FILLER_0_3_167
*1270 FILLER_0_3_169
*1271 FILLER_0_3_181
*1272 FILLER_0_3_193
*1273 FILLER_0_3_205
*1274 FILLER_0_3_217
*1275 FILLER_0_3_223
*1276 FILLER_0_3_225
*1277 FILLER_0_3_237
*1278 FILLER_0_3_249
*1279 FILLER_0_3_261
*1280 FILLER_0_3_27
*1281 FILLER_0_3_273
*1282 FILLER_0_3_279
*1283 FILLER_0_3_281
*1284 FILLER_0_3_293
*1285 FILLER_0_3_3
*1286 FILLER_0_3_305
*1287 FILLER_0_3_317
*1288 FILLER_0_3_329
*1289 FILLER_0_3_39
*1290 FILLER_0_3_51
*1291 FILLER_0_3_55
*1292 FILLER_0_3_57
*1293 FILLER_0_3_69
*1294 FILLER_0_3_81
*1295 FILLER_0_3_93
*1296 FILLER_0_4_109
*1297 FILLER_0_4_121
*1298 FILLER_0_4_133
*1299 FILLER_0_4_139
*1300 FILLER_0_4_141
*1301 FILLER_0_4_15
*1302 FILLER_0_4_153
*1303 FILLER_0_4_165
*1304 FILLER_0_4_177
*1305 FILLER_0_4_189
*1306 FILLER_0_4_195
*1307 FILLER_0_4_197
*1308 FILLER_0_4_209
*1309 FILLER_0_4_221
*1310 FILLER_0_4_233
*1311 FILLER_0_4_245
*1312 FILLER_0_4_251
*1313 FILLER_0_4_253
*1314 FILLER_0_4_265
*1315 FILLER_0_4_27
*1316 FILLER_0_4_277
*1317 FILLER_0_4_289
*1318 FILLER_0_4_29
*1319 FILLER_0_4_3
*1320 FILLER_0_4_301
*1321 FILLER_0_4_307
*1322 FILLER_0_4_309
*1323 FILLER_0_4_321
*1324 FILLER_0_4_333
*1325 FILLER_0_4_41
*1326 FILLER_0_4_53
*1327 FILLER_0_4_65
*1328 FILLER_0_4_77
*1329 FILLER_0_4_83
*1330 FILLER_0_4_85
*1331 FILLER_0_4_97
*1332 FILLER_0_5_105
*1333 FILLER_0_5_111
*1334 FILLER_0_5_113
*1335 FILLER_0_5_125
*1336 FILLER_0_5_137
*1337 FILLER_0_5_149
*1338 FILLER_0_5_15
*1339 FILLER_0_5_161
*1340 FILLER_0_5_167
*1341 FILLER_0_5_169
*1342 FILLER_0_5_181
*1343 FILLER_0_5_193
*1344 FILLER_0_5_205
*1345 FILLER_0_5_217
*1346 FILLER_0_5_223
*1347 FILLER_0_5_225
*1348 FILLER_0_5_237
*1349 FILLER_0_5_249
*1350 FILLER_0_5_261
*1351 FILLER_0_5_27
*1352 FILLER_0_5_273
*1353 FILLER_0_5_279
*1354 FILLER_0_5_281
*1355 FILLER_0_5_293
*1356 FILLER_0_5_3
*1357 FILLER_0_5_305
*1358 FILLER_0_5_317
*1359 FILLER_0_5_329
*1360 FILLER_0_5_39
*1361 FILLER_0_5_51
*1362 FILLER_0_5_55
*1363 FILLER_0_5_57
*1364 FILLER_0_5_69
*1365 FILLER_0_5_81
*1366 FILLER_0_5_93
*1367 FILLER_0_6_109
*1368 FILLER_0_6_121
*1369 FILLER_0_6_133
*1370 FILLER_0_6_139
*1371 FILLER_0_6_141
*1372 FILLER_0_6_15
*1373 FILLER_0_6_153
*1374 FILLER_0_6_165
*1375 FILLER_0_6_177
*1376 FILLER_0_6_189
*1377 FILLER_0_6_195
*1378 FILLER_0_6_197
*1379 FILLER_0_6_209
*1380 FILLER_0_6_221
*1381 FILLER_0_6_233
*1382 FILLER_0_6_245
*1383 FILLER_0_6_251
*1384 FILLER_0_6_253
*1385 FILLER_0_6_265
*1386 FILLER_0_6_27
*1387 FILLER_0_6_277
*1388 FILLER_0_6_289
*1389 FILLER_0_6_29
*1390 FILLER_0_6_3
*1391 FILLER_0_6_301
*1392 FILLER_0_6_307
*1393 FILLER_0_6_309
*1394 FILLER_0_6_321
*1395 FILLER_0_6_333
*1396 FILLER_0_6_41
*1397 FILLER_0_6_53
*1398 FILLER_0_6_65
*1399 FILLER_0_6_77
*1400 FILLER_0_6_83
*1401 FILLER_0_6_85
*1402 FILLER_0_6_97
*1403 FILLER_0_7_105
*1404 FILLER_0_7_111
*1405 FILLER_0_7_113
*1406 FILLER_0_7_125
*1407 FILLER_0_7_137
*1408 FILLER_0_7_149
*1409 FILLER_0_7_15
*1410 FILLER_0_7_161
*1411 FILLER_0_7_167
*1412 FILLER_0_7_169
*1413 FILLER_0_7_181
*1414 FILLER_0_7_193
*1415 FILLER_0_7_205
*1416 FILLER_0_7_217
*1417 FILLER_0_7_223
*1418 FILLER_0_7_225
*1419 FILLER_0_7_237
*1420 FILLER_0_7_249
*1421 FILLER_0_7_261
*1422 FILLER_0_7_27
*1423 FILLER_0_7_273
*1424 FILLER_0_7_279
*1425 FILLER_0_7_281
*1426 FILLER_0_7_293
*1427 FILLER_0_7_3
*1428 FILLER_0_7_305
*1429 FILLER_0_7_317
*1430 FILLER_0_7_329
*1431 FILLER_0_7_39
*1432 FILLER_0_7_51
*1433 FILLER_0_7_55
*1434 FILLER_0_7_57
*1435 FILLER_0_7_69
*1436 FILLER_0_7_81
*1437 FILLER_0_7_93
*1438 FILLER_0_8_109
*1439 FILLER_0_8_121
*1440 FILLER_0_8_133
*1441 FILLER_0_8_139
*1442 FILLER_0_8_141
*1443 FILLER_0_8_15
*1444 FILLER_0_8_153
*1445 FILLER_0_8_165
*1446 FILLER_0_8_177
*1447 FILLER_0_8_189
*1448 FILLER_0_8_195
*1449 FILLER_0_8_197
*1450 FILLER_0_8_209
*1451 FILLER_0_8_221
*1452 FILLER_0_8_233
*1453 FILLER_0_8_245
*1454 FILLER_0_8_251
*1455 FILLER_0_8_253