*SPEF "ieee 1481-1999"
*DESIGN "tt_um_i_tree_batzolislefteris"
*DATE "07:13:03 Wednesday April 17, 2024"
*VENDOR "The OpenROAD Project"
*PROGRAM "OpenROAD"
*VERSION "0889970d1790a2617e69f253221b8bd7626e51dc"
*DESIGN_FLOW "NAME_SCOPE LOCAL" "PIN_CAP NONE"
*DIVIDER /
*DELIMITER :
*BUS_DELIMITER []
*T_UNIT 1 NS
*C_UNIT 1 PF
*R_UNIT 1 OHM
*L_UNIT 1 HENRY

*NAME_MAP
*3 clk
*4 ena
*5 rst_n
*6 ui_in[0]
*7 ui_in[1]
*8 ui_in[2]
*9 ui_in[3]
*10 ui_in[4]
*11 ui_in[5]
*12 ui_in[6]
*13 ui_in[7]
*14 uio_in[0]
*15 uio_in[1]
*16 uio_in[2]
*17 uio_in[3]
*18 uio_in[4]
*19 uio_in[5]
*20 uio_in[6]
*21 uio_in[7]
*22 net7
*23 net8
*24 net9
*25 net10
*26 net11
*27 net12
*28 net13
*29 net14
*30 net15
*31 net16
*32 net17
*33 net18
*34 net19
*35 net20
*36 net21
*37 net22
*38 uo_out[0]
*39 net23
*40 net24
*41 net25
*42 net26
*43 net27
*44 net28
*45 net29
*46 _000_
*47 _001_
*48 _002_
*49 _003_
*50 _004_
*51 _005_
*52 _006_
*53 _007_
*54 _008_
*55 _009_
*56 _010_
*57 _011_
*58 _012_
*59 _013_
*60 _014_
*61 _015_
*62 _016_
*63 _017_
*64 _018_
*65 _019_
*66 _020_
*67 _021_
*68 _022_
*69 _023_
*70 _024_
*71 _025_
*72 _026_
*73 _027_
*74 _028_
*75 _029_
*76 _030_
*77 _031_
*78 _032_
*79 _033_
*80 _034_
*81 _035_
*82 _036_
*83 _037_
*84 _038_
*85 _039_
*86 _040_
*87 _041_
*88 _042_
*89 _043_
*90 _044_
*91 _045_
*92 _046_
*93 _047_
*94 _048_
*95 _049_
*96 _050_
*97 _051_
*98 _052_
*99 _053_
*100 _054_
*101 _055_
*102 _056_
*103 _057_
*104 _058_
*105 _059_
*106 _060_
*107 _061_
*108 _062_
*109 _063_
*110 _064_
*111 _065_
*112 _066_
*113 _067_
*114 _068_
*115 _069_
*116 _070_
*117 _071_
*118 _072_
*119 _073_
*120 _074_
*121 _075_
*122 _076_
*123 _077_
*124 _078_
*125 _079_
*126 _080_
*127 clknet_0_clk
*128 clknet_2_0__leaf_clk
*129 clknet_2_1__leaf_clk
*130 clknet_2_2__leaf_clk
*131 clknet_2_3__leaf_clk
*132 i_tree\.anomaly_detected
*133 i_tree\.data_from_buffer\[0\]
*134 i_tree\.data_from_buffer\[1\]
*135 i_tree\.data_from_buffer\[2\]
*136 i_tree\.data_from_buffer\[3\]
*137 i_tree\.data_from_buffer\[4\]
*138 i_tree\.data_from_buffer\[5\]
*139 i_tree\.data_from_buffer\[6\]
*140 i_tree\.data_from_buffer\[7\]
*141 i_tree\.data_processed
*142 i_tree\.data_ready
*143 i_tree\.input_buffer_inst\.buffer_0\[0\]
*144 i_tree\.input_buffer_inst\.buffer_0\[1\]
*145 i_tree\.input_buffer_inst\.buffer_0\[2\]
*146 i_tree\.input_buffer_inst\.buffer_0\[3\]
*147 i_tree\.input_buffer_inst\.buffer_0\[4\]
*148 i_tree\.input_buffer_inst\.buffer_0\[5\]
*149 i_tree\.input_buffer_inst\.buffer_0\[6\]
*150 i_tree\.input_buffer_inst\.buffer_0\[7\]
*151 i_tree\.input_buffer_inst\.buffer_1\[0\]
*152 i_tree\.input_buffer_inst\.buffer_1\[1\]
*153 i_tree\.input_buffer_inst\.buffer_1\[2\]
*154 i_tree\.input_buffer_inst\.buffer_1\[3\]
*155 i_tree\.input_buffer_inst\.buffer_1\[4\]
*156 i_tree\.input_buffer_inst\.buffer_1\[5\]
*157 i_tree\.input_buffer_inst\.buffer_1\[6\]
*158 i_tree\.input_buffer_inst\.buffer_1\[7\]
*159 i_tree\.input_buffer_inst\.select
*160 i_tree\.isolation_tree_state_machine_inst\.current_state\[0\]
*161 i_tree\.isolation_tree_state_machine_inst\.current_state\[1\]
*162 i_tree\.isolation_tree_state_machine_inst\.next_state\[0\]
*163 i_tree\.isolation_tree_state_machine_inst\.next_state\[1\]
*164 net1
*165 net2
*166 net3
*167 net30
*168 net31
*169 net32
*170 net33
*171 net34
*172 net35
*173 net36
*174 net37
*175 net38
*176 net39
*177 net4
*178 net40
*179 net41
*180 net42
*181 net43
*182 net44
*183 net45
*184 net46
*185 net47
*186 net48
*187 net49
*188 net5
*189 net50
*190 net51
*191 net52
*192 net6
*193 FILLER_0_0_109
*194 FILLER_0_0_113
*195 FILLER_0_0_125
*196 FILLER_0_0_137
*197 FILLER_0_0_141
*198 FILLER_0_0_15
*199 FILLER_0_0_153
*200 FILLER_0_0_165
*201 FILLER_0_0_169
*202 FILLER_0_0_181
*203 FILLER_0_0_193
*204 FILLER_0_0_197
*205 FILLER_0_0_209
*206 FILLER_0_0_221
*207 FILLER_0_0_225
*208 FILLER_0_0_237
*209 FILLER_0_0_249
*210 FILLER_0_0_253
*211 FILLER_0_0_265
*212 FILLER_0_0_27
*213 FILLER_0_0_277
*214 FILLER_0_0_281
*215 FILLER_0_0_29
*216 FILLER_0_0_293
*217 FILLER_0_0_3
*218 FILLER_0_0_305
*219 FILLER_0_0_309
*220 FILLER_0_0_321
*221 FILLER_0_0_333
*222 FILLER_0_0_41
*223 FILLER_0_0_53
*224 FILLER_0_0_57
*225 FILLER_0_0_69
*226 FILLER_0_0_81
*227 FILLER_0_0_85
*228 FILLER_0_0_97
*229 FILLER_0_10_109
*230 FILLER_0_10_121
*231 FILLER_0_10_133
*232 FILLER_0_10_139
*233 FILLER_0_10_141
*234 FILLER_0_10_15
*235 FILLER_0_10_153
*236 FILLER_0_10_165
*237 FILLER_0_10_177
*238 FILLER_0_10_189
*239 FILLER_0_10_195
*240 FILLER_0_10_197
*241 FILLER_0_10_209
*242 FILLER_0_10_221
*243 FILLER_0_10_233
*244 FILLER_0_10_245
*245 FILLER_0_10_251
*246 FILLER_0_10_253
*247 FILLER_0_10_265
*248 FILLER_0_10_27
*249 FILLER_0_10_277
*250 FILLER_0_10_289
*251 FILLER_0_10_29
*252 FILLER_0_10_3
*253 FILLER_0_10_301
*254 FILLER_0_10_307
*255 FILLER_0_10_309
*256 FILLER_0_10_321
*257 FILLER_0_10_333
*258 FILLER_0_10_41
*259 FILLER_0_10_53
*260 FILLER_0_10_65
*261 FILLER_0_10_77
*262 FILLER_0_10_83
*263 FILLER_0_10_85
*264 FILLER_0_10_97
*265 FILLER_0_11_105
*266 FILLER_0_11_111
*267 FILLER_0_11_113
*268 FILLER_0_11_125
*269 FILLER_0_11_137
*270 FILLER_0_11_149
*271 FILLER_0_11_15
*272 FILLER_0_11_161
*273 FILLER_0_11_167
*274 FILLER_0_11_169
*275 FILLER_0_11_181
*276 FILLER_0_11_193
*277 FILLER_0_11_205
*278 FILLER_0_11_217
*279 FILLER_0_11_223
*280 FILLER_0_11_225
*281 FILLER_0_11_237
*282 FILLER_0_11_249
*283 FILLER_0_11_261
*284 FILLER_0_11_27
*285 FILLER_0_11_273
*286 FILLER_0_11_279
*287 FILLER_0_11_281
*288 FILLER_0_11_293
*289 FILLER_0_11_3
*290 FILLER_0_11_305
*291 FILLER_0_11_317
*292 FILLER_0_11_329
*293 FILLER_0_11_39
*294 FILLER_0_11_51
*295 FILLER_0_11_55
*296 FILLER_0_11_57
*297 FILLER_0_11_69
*298 FILLER_0_11_81
*299 FILLER_0_11_93
*300 FILLER_0_12_109
*301 FILLER_0_12_121
*302 FILLER_0_12_133
*303 FILLER_0_12_139
*304 FILLER_0_12_141
*305 FILLER_0_12_15
*306 FILLER_0_12_153
*307 FILLER_0_12_165
*308 FILLER_0_12_177
*309 FILLER_0_12_189
*310 FILLER_0_12_195
*311 FILLER_0_12_197
*312 FILLER_0_12_209
*313 FILLER_0_12_221
*314 FILLER_0_12_233
*315 FILLER_0_12_245
*316 FILLER_0_12_251
*317 FILLER_0_12_253
*318 FILLER_0_12_265
*319 FILLER_0_12_27
*320 FILLER_0_12_277
*321 FILLER_0_12_289
*322 FILLER_0_12_29
*323 FILLER_0_12_3
*324 FILLER_0_12_301
*325 FILLER_0_12_307
*326 FILLER_0_12_309
*327 FILLER_0_12_321
*328 FILLER_0_12_333
*329 FILLER_0_12_41
*330 FILLER_0_12_53
*331 FILLER_0_12_65
*332 FILLER_0_12_77
*333 FILLER_0_12_83
*334 FILLER_0_12_85
*335 FILLER_0_12_97
*336 FILLER_0_13_105
*337 FILLER_0_13_111
*338 FILLER_0_13_113
*339 FILLER_0_13_125
*340 FILLER_0_13_137
*341 FILLER_0_13_149
*342 FILLER_0_13_15
*343 FILLER_0_13_161
*344 FILLER_0_13_167
*345 FILLER_0_13_169
*346 FILLER_0_13_181
*347 FILLER_0_13_193
*348 FILLER_0_13_205
*349 FILLER_0_13_217
*350 FILLER_0_13_223
*351 FILLER_0_13_225
*352 FILLER_0_13_237
*353 FILLER_0_13_249
*354 FILLER_0_13_261
*355 FILLER_0_13_27
*356 FILLER_0_13_273
*357 FILLER_0_13_279
*358 FILLER_0_13_281
*359 FILLER_0_13_293
*360 FILLER_0_13_3
*361 FILLER_0_13_305
*362 FILLER_0_13_317
*363 FILLER_0_13_329
*364 FILLER_0_13_39
*365 FILLER_0_13_51
*366 FILLER_0_13_55
*367 FILLER_0_13_57
*368 FILLER_0_13_69
*369 FILLER_0_13_81
*370 FILLER_0_13_93
*371 FILLER_0_14_109
*372 FILLER_0_14_121
*373 FILLER_0_14_133
*374 FILLER_0_14_139
*375 FILLER_0_14_141
*376 FILLER_0_14_15
*377 FILLER_0_14_153
*378 FILLER_0_14_165
*379 FILLER_0_14_177
*380 FILLER_0_14_189
*381 FILLER_0_14_195
*382 FILLER_0_14_197
*383 FILLER_0_14_209
*384 FILLER_0_14_221
*385 FILLER_0_14_233
*386 FILLER_0_14_245
*387 FILLER_0_14_251
*388 FILLER_0_14_253
*389 FILLER_0_14_265
*390 FILLER_0_14_27
*391 FILLER_0_14_277
*392 FILLER_0_14_289
*393 FILLER_0_14_29
*394 FILLER_0_14_3
*395 FILLER_0_14_301
*396 FILLER_0_14_307
*397 FILLER_0_14_309
*398 FILLER_0_14_321
*399 FILLER_0_14_333
*400 FILLER_0_14_41
*401 FILLER_0_14_53
*402 FILLER_0_14_65
*403 FILLER_0_14_77
*404 FILLER_0_14_83
*405 FILLER_0_14_85
*406 FILLER_0_14_97
*407 FILLER_0_15_105
*408 FILLER_0_15_111
*409 FILLER_0_15_113
*410 FILLER_0_15_125
*411 FILLER_0_15_137
*412 FILLER_0_15_149
*413 FILLER_0_15_15
*414 FILLER_0_15_161
*415 FILLER_0_15_167
*416 FILLER_0_15_169
*417 FILLER_0_15_181
*418 FILLER_0_15_193
*419 FILLER_0_15_205
*420 FILLER_0_15_217
*421 FILLER_0_15_223
*422 FILLER_0_15_225
*423 FILLER_0_15_237
*424 FILLER_0_15_249
*425 FILLER_0_15_261
*426 FILLER_0_15_27
*427 FILLER_0_15_273
*428 FILLER_0_15_279
*429 FILLER_0_15_281
*430 FILLER_0_15_293
*431 FILLER_0_15_3
*432 FILLER_0_15_305
*433 FILLER_0_15_317
*434 FILLER_0_15_329
*435 FILLER_0_15_39
*436 FILLER_0_15_51
*437 FILLER_0_15_55
*438 FILLER_0_15_57
*439 FILLER_0_15_69
*440 FILLER_0_15_81
*441 FILLER_0_15_93
*442 FILLER_0_16_109
*443 FILLER_0_16_121
*444 FILLER_0_16_133
*445 FILLER_0_16_139
*446 FILLER_0_16_141
*447 FILLER_0_16_15
*448 FILLER_0_16_153
*449 FILLER_0_16_165
*450 FILLER_0_16_177
*451 FILLER_0_16_189
*452 FILLER_0_16_195
*453 FILLER_0_16_197
*454 FILLER_0_16_209
*455 FILLER_0_16_221
*456 FILLER_0_16_233
*457 FILLER_0_16_245
*458 FILLER_0_16_251
*459 FILLER_0_16_253
*460 FILLER_0_16_265
*461 FILLER_0_16_27
*462 FILLER_0_16_277
*463 FILLER_0_16_289
*464 FILLER_0_16_29
*465 FILLER_0_16_3
*466 FILLER_0_16_301
*467 FILLER_0_16_307
*468 FILLER_0_16_309
*469 FILLER_0_16_321
*470 FILLER_0_16_333
*471 FILLER_0_16_41
*472 FILLER_0_16_53
*473 FILLER_0_16_65
*474 FILLER_0_16_77
*475 FILLER_0_16_83
*476 FILLER_0_16_85
*477 FILLER_0_16_97
*478 FILLER_0_17_105
*479 FILLER_0_17_111
*480 FILLER_0_17_113
*481 FILLER_0_17_125
*482 FILLER_0_17_137
*483 FILLER_0_17_149
*484 FILLER_0_17_15
*485 FILLER_0_17_161
*486 FILLER_0_17_167
*487 FILLER_0_17_169
*488 FILLER_0_17_181
*489 FILLER_0_17_193
*490 FILLER_0_17_205
*491 FILLER_0_17_217
*492 FILLER_0_17_223
*493 FILLER_0_17_225
*494 FILLER_0_17_237
*495 FILLER_0_17_249
*496 FILLER_0_17_261
*497 FILLER_0_17_27
*498 FILLER_0_17_273
*499 FILLER_0_17_279
*500 FILLER_0_17_281
*501 FILLER_0_17_293
*502 FILLER_0_17_3
*503 FILLER_0_17_305
*504 FILLER_0_17_317
*505 FILLER_0_17_329
*506 FILLER_0_17_39
*507 FILLER_0_17_51
*508 FILLER_0_17_55
*509 FILLER_0_17_57
*510 FILLER_0_17_69
*511 FILLER_0_17_81
*512 FILLER_0_17_93
*513 FILLER_0_18_109
*514 FILLER_0_18_121
*515 FILLER_0_18_133
*516 FILLER_0_18_139
*517 FILLER_0_18_141
*518 FILLER_0_18_15
*519 FILLER_0_18_153
*520 FILLER_0_18_165
*521 FILLER_0_18_177
*522 FILLER_0_18_189
*523 FILLER_0_18_195
*524 FILLER_0_18_197
*525 FILLER_0_18_209
*526 FILLER_0_18_221
*527 FILLER_0_18_233
*528 FILLER_0_18_245
*529 FILLER_0_18_251
*530 FILLER_0_18_253
*531 FILLER_0_18_265
*532 FILLER_0_18_27
*533 FILLER_0_18_277
*534 FILLER_0_18_289
*535 FILLER_0_18_29
*536 FILLER_0_18_3
*537 FILLER_0_18_301
*538 FILLER_0_18_307
*539 FILLER_0_18_309
*540 FILLER_0_18_321
*541 FILLER_0_18_333
*542 FILLER_0_18_41
*543 FILLER_0_18_53
*544 FILLER_0_18_65
*545 FILLER_0_18_77
*546 FILLER_0_18_83
*547 FILLER_0_18_85
*548 FILLER_0_18_97
*549 FILLER_0_19_105
*550 FILLER_0_19_111
*551 FILLER_0_19_113
*552 FILLER_0_19_125
*553 FILLER_0_19_137
*554 FILLER_0_19_149
*555 FILLER_0_19_15
*556 FILLER_0_19_161
*557 FILLER_0_19_167
*558 FILLER_0_19_169
*559 FILLER_0_19_181
*560 FILLER_0_19_193
*561 FILLER_0_19_205
*562 FILLER_0_19_217
*563 FILLER_0_19_223
*564 FILLER_0_19_225
*565 FILLER_0_19_237
*566 FILLER_0_19_249
*567 FILLER_0_19_261
*568 FILLER_0_19_27
*569 FILLER_0_19_273
*570 FILLER_0_19_279
*571 FILLER_0_19_281
*572 FILLER_0_19_293
*573 FILLER_0_19_3
*574 FILLER_0_19_305
*575 FILLER_0_19_317
*576 FILLER_0_19_329
*577 FILLER_0_19_39
*578 FILLER_0_19_51
*579 FILLER_0_19_55
*580 FILLER_0_19_57
*581 FILLER_0_19_69
*582 FILLER_0_19_81
*583 FILLER_0_19_93
*584 FILLER_0_1_105
*585 FILLER_0_1_111
*586 FILLER_0_1_113
*587 FILLER_0_1_125
*588 FILLER_0_1_137
*589 FILLER_0_1_149
*590 FILLER_0_1_15
*591 FILLER_0_1_161
*592 FILLER_0_1_167
*593 FILLER_0_1_169
*594 FILLER_0_1_181
*595 FILLER_0_1_193
*596 FILLER_0_1_205
*597 FILLER_0_1_217
*598 FILLER_0_1_223
*599 FILLER_0_1_225
*600 FILLER_0_1_237
*601 FILLER_0_1_249
*602 FILLER_0_1_261
*603 FILLER_0_1_27
*604 FILLER_0_1_273
*605 FILLER_0_1_279
*606 FILLER_0_1_281
*607 FILLER_0_1_293
*608 FILLER_0_1_3
*609 FILLER_0_1_305
*610 FILLER_0_1_317
*611 FILLER_0_1_329
*612 FILLER_0_1_39
*613 FILLER_0_1_51
*614 FILLER_0_1_55
*615 FILLER_0_1_57
*616 FILLER_0_1_69
*617 FILLER_0_1_81
*618 FILLER_0_1_93
*619 FILLER_0_20_109
*620 FILLER_0_20_121
*621 FILLER_0_20_133
*622 FILLER_0_20_139
*623 FILLER_0_20_141
*624 FILLER_0_20_15
*625 FILLER_0_20_153
*626 FILLER_0_20_165
*627 FILLER_0_20_177
*628 FILLER_0_20_189
*629 FILLER_0_20_195
*630 FILLER_0_20_197
*631 FILLER_0_20_209
*632 FILLER_0_20_221
*633 FILLER_0_20_233
*634 FILLER_0_20_245
*635 FILLER_0_20_251
*636 FILLER_0_20_253
*637 FILLER_0_20_265
*638 FILLER_0_20_27
*639 FILLER_0_20_277
*640 FILLER_0_20_289
*641 FILLER_0_20_29
*642 FILLER_0_20_3
*643 FILLER_0_20_301
*644 FILLER_0_20_307
*645 FILLER_0_20_309
*646 FILLER_0_20_321
*647 FILLER_0_20_333
*648 FILLER_0_20_41
*649 FILLER_0_20_53
*650 FILLER_0_20_65
*651 FILLER_0_20_77
*652 FILLER_0_20_83
*653 FILLER_0_20_85
*654 FILLER_0_20_97
*655 FILLER_0_21_105
*656 FILLER_0_21_111
*657 FILLER_0_21_113
*658 FILLER_0_21_125
*659 FILLER_0_21_137
*660 FILLER_0_21_149
*661 FILLER_0_21_15
*662 FILLER_0_21_161
*663 FILLER_0_21_167
*664 FILLER_0_21_169
*665 FILLER_0_21_181
*666 FILLER_0_21_193
*667 FILLER_0_21_205
*668 FILLER_0_21_217
*669 FILLER_0_21_223
*670 FILLER_0_21_225
*671 FILLER_0_21_237
*672 FILLER_0_21_249
*673 FILLER_0_21_261
*674 FILLER_0_21_27
*675 FILLER_0_21_273
*676 FILLER_0_21_279
*677 FILLER_0_21_281
*678 FILLER_0_21_293
*679 FILLER_0_21_3
*680 FILLER_0_21_305
*681 FILLER_0_21_317
*682 FILLER_0_21_329
*683 FILLER_0_21_39
*684 FILLER_0_21_51
*685 FILLER_0_21_55
*686 FILLER_0_21_57
*687 FILLER_0_21_69
*688 FILLER_0_21_81
*689 FILLER_0_21_93
*690 FILLER_0_22_109
*691 FILLER_0_22_121
*692 FILLER_0_22_133
*693 FILLER_0_22_139
*694 FILLER_0_22_141
*695 FILLER_0_22_15
*696 FILLER_0_22_153
*697 FILLER_0_22_165
*698 FILLER_0_22_177
*699 FILLER_0_22_189
*700 FILLER_0_22_195
*701 FILLER_0_22_197
*702 FILLER_0_22_209
*703 FILLER_0_22_221
*704 FILLER_0_22_233
*705 FILLER_0_22_245
*706 FILLER_0_22_251
*707 FILLER_0_22_253
*708 FILLER_0_22_265
*709 FILLER_0_22_27
*710 FILLER_0_22_277
*711 FILLER_0_22_289
*712 FILLER_0_22_29
*713 FILLER_0_22_3
*714 FILLER_0_22_301
*715 FILLER_0_22_307
*716 FILLER_0_22_309
*717 FILLER_0_22_321
*718 FILLER_0_22_333
*719 FILLER_0_22_41
*720 FILLER_0_22_53
*721 FILLER_0_22_65
*722 FILLER_0_22_77
*723 FILLER_0_22_83
*724 FILLER_0_22_85
*725 FILLER_0_22_97
*726 FILLER_0_23_105
*727 FILLER_0_23_111
*728 FILLER_0_23_113
*729 FILLER_0_23_125
*730 FILLER_0_23_137
*731 FILLER_0_23_149
*732 FILLER_0_23_15
*733 FILLER_0_23_161
*734 FILLER_0_23_167
*735 FILLER_0_23_169
*736 FILLER_0_23_181
*737 FILLER_0_23_193
*738 FILLER_0_23_205
*739 FILLER_0_23_217
*740 FILLER_0_23_223
*741 FILLER_0_23_225
*742 FILLER_0_23_237
*743 FILLER_0_23_249
*744 FILLER_0_23_261
*745 FILLER_0_23_27
*746 FILLER_0_23_273
*747 FILLER_0_23_279
*748 FILLER_0_23_281
*749 FILLER_0_23_293
*750 FILLER_0_23_3
*751 FILLER_0_23_305
*752 FILLER_0_23_317
*753 FILLER_0_23_329
*754 FILLER_0_23_39
*755 FILLER_0_23_51
*756 FILLER_0_23_55
*757 FILLER_0_23_57
*758 FILLER_0_23_69
*759 FILLER_0_23_81
*760 FILLER_0_23_93
*761 FILLER_0_24_109
*762 FILLER_0_24_121
*763 FILLER_0_24_133
*764 FILLER_0_24_139
*765 FILLER_0_24_141
*766 FILLER_0_24_15
*767 FILLER_0_24_153
*768 FILLER_0_24_165
*769 FILLER_0_24_177
*770 FILLER_0_24_189
*771 FILLER_0_24_195
*772 FILLER_0_24_197
*773 FILLER_0_24_209
*774 FILLER_0_24_221
*775 FILLER_0_24_233
*776 FILLER_0_24_245
*777 FILLER_0_24_251
*778 FILLER_0_24_253
*779 FILLER_0_24_265
*780 FILLER_0_24_27
*781 FILLER_0_24_277
*782 FILLER_0_24_289
*783 FILLER_0_24_29
*784 FILLER_0_24_3
*785 FILLER_0_24_301
*786 FILLER_0_24_307
*787 FILLER_0_24_309
*788 FILLER_0_24_321
*789 FILLER_0_24_333
*790 FILLER_0_24_41
*791 FILLER_0_24_53
*792 FILLER_0_24_65
*793 FILLER_0_24_77
*794 FILLER_0_24_83
*795 FILLER_0_24_85
*796 FILLER_0_24_97
*797 FILLER_0_25_105
*798 FILLER_0_25_111
*799 FILLER_0_25_113
*800 FILLER_0_25_125
*801 FILLER_0_25_137
*802 FILLER_0_25_149
*803 FILLER_0_25_15
*804 FILLER_0_25_161
*805 FILLER_0_25_167
*806 FILLER_0_25_169
*807 FILLER_0_25_181
*808 FILLER_0_25_193
*809 FILLER_0_25_205
*810 FILLER_0_25_217
*811 FILLER_0_25_223
*812 FILLER_0_25_225
*813 FILLER_0_25_237
*814 FILLER_0_25_249
*815 FILLER_0_25_261
*816 FILLER_0_25_27
*817 FILLER_0_25_273
*818 FILLER_0_25_279
*819 FILLER_0_25_281
*820 FILLER_0_25_293
*821 FILLER_0_25_3
*822 FILLER_0_25_305
*823 FILLER_0_25_317
*824 FILLER_0_25_329
*825 FILLER_0_25_39
*826 FILLER_0_25_51
*827 FILLER_0_25_55
*828 FILLER_0_25_57
*829 FILLER_0_25_69
*830 FILLER_0_25_81
*831 FILLER_0_25_93
*832 FILLER_0_26_109
*833 FILLER_0_26_121
*834 FILLER_0_26_133
*835 FILLER_0_26_139
*836 FILLER_0_26_141
*837 FILLER_0_26_15
*838 FILLER_0_26_153
*839 FILLER_0_26_165
*840 FILLER_0_26_177
*841 FILLER_0_26_189
*842 FILLER_0_26_195
*843 FILLER_0_26_197
*844 FILLER_0_26_209
*845 FILLER_0_26_221
*846 FILLER_0_26_233
*847 FILLER_0_26_245
*848 FILLER_0_26_251
*849 FILLER_0_26_27
*850 FILLER_0_26_281
*851 FILLER_0_26_29
*852 FILLER_0_26_293
*853 FILLER_0_26_3
*854 FILLER_0_26_305
*855 FILLER_0_26_309
*856 FILLER_0_26_321
*857 FILLER_0_26_333
*858 FILLER_0_26_41
*859 FILLER_0_26_53
*860 FILLER_0_26_65
*861 FILLER_0_26_77
*862 FILLER_0_26_83
*863 FILLER_0_26_85
*864 FILLER_0_26_97
*865 FILLER_0_27_105
*866 FILLER_0_27_111
*867 FILLER_0_27_113
*868 FILLER_0_27_125
*869 FILLER_0_27_137
*870 FILLER_0_27_149
*871 FILLER_0_27_15
*872 FILLER_0_27_161
*873 FILLER_0_27_167
*874 FILLER_0_27_169
*875 FILLER_0_27_181
*876 FILLER_0_27_193
*877 FILLER_0_27_197
*878 FILLER_0_27_215
*879 FILLER_0_27_223
*880 FILLER_0_27_234
*881 FILLER_0_27_262
*882 FILLER_0_27_27
*883 FILLER_0_27_277
*884 FILLER_0_27_281
*885 FILLER_0_27_289
*886 FILLER_0_27_3
*887 FILLER_0_27_312
*888 FILLER_0_27_324
*889 FILLER_0_27_332
*890 FILLER_0_27_39
*891 FILLER_0_27_51
*892 FILLER_0_27_55
*893 FILLER_0_27_57
*894 FILLER_0_27_69
*895 FILLER_0_27_81
*896 FILLER_0_27_93
*897 FILLER_0_28_109
*898 FILLER_0_28_121
*899 FILLER_0_28_133
*900 FILLER_0_28_139
*901 FILLER_0_28_141
*902 FILLER_0_28_15
*903 FILLER_0_28_153
*904 FILLER_0_28_165
*905 FILLER_0_28_177
*906 FILLER_0_28_189
*907 FILLER_0_28_193
*908 FILLER_0_28_245
*909 FILLER_0_28_27
*910 FILLER_0_28_282
*911 FILLER_0_28_29
*912 FILLER_0_28_3
*913 FILLER_0_28_315
*914 FILLER_0_28_325
*915 FILLER_0_28_333
*916 FILLER_0_28_41
*917 FILLER_0_28_53
*918 FILLER_0_28_65
*919 FILLER_0_28_77
*920 FILLER_0_28_83
*921 FILLER_0_28_85
*922 FILLER_0_28_97
*923 FILLER_0_29_105
*924 FILLER_0_29_111
*925 FILLER_0_29_113
*926 FILLER_0_29_125
*927 FILLER_0_29_137
*928 FILLER_0_29_149
*929 FILLER_0_29_15
*930 FILLER_0_29_161
*931 FILLER_0_29_167
*932 FILLER_0_29_169
*933 FILLER_0_29_245
*934 FILLER_0_29_27
*935 FILLER_0_29_278
*936 FILLER_0_29_281
*937 FILLER_0_29_3
*938 FILLER_0_29_333
*939 FILLER_0_29_39
*940 FILLER_0_29_51
*941 FILLER_0_29_55
*942 FILLER_0_29_57
*943 FILLER_0_29_69
*944 FILLER_0_29_81
*945 FILLER_0_29_93
*946 FILLER_0_2_109
*947 FILLER_0_2_121
*948 FILLER_0_2_133
*949 FILLER_0_2_139
*950 FILLER_0_2_141
*951 FILLER_0_2_15
*952 FILLER_0_2_153
*953 FILLER_0_2_165
*954 FILLER_0_2_177
*955 FILLER_0_2_189
*956 FILLER_0_2_195
*957 FILLER_0_2_197
*958 FILLER_0_2_209
*959 FILLER_0_2_221
*960 FILLER_0_2_233
*961 FILLER_0_2_245
*962 FILLER_0_2_251
*963 FILLER_0_2_253
*964 FILLER_0_2_265
*965 FILLER_0_2_27
*966 FILLER_0_2_277
*967 FILLER_0_2_289
*968 FILLER_0_2_29
*969 FILLER_0_2_3
*970 FILLER_0_2_301
*971 FILLER_0_2_307
*972 FILLER_0_2_309
*973 FILLER_0_2_321
*974 FILLER_0_2_333
*975 FILLER_0_2_41
*976 FILLER_0_2_53
*977 FILLER_0_2_65
*978 FILLER_0_2_77
*979 FILLER_0_2_83
*980 FILLER_0_2_85
*981 FILLER_0_2_97
*982 FILLER_0_30_109
*983 FILLER_0_30_121
*984 FILLER_0_30_133
*985 FILLER_0_30_139
*986 FILLER_0_30_141
*987 FILLER_0_30_15
*988 FILLER_0_30_153
*989 FILLER_0_30_165
*990 FILLER_0_30_177
*991 FILLER_0_30_189
*992 FILLER_0_30_194
*993 FILLER_0_30_210
*994 FILLER_0_30_236
*995 FILLER_0_30_248
*996 FILLER_0_30_253
*997 FILLER_0_30_257
*998 FILLER_0_30_27
*999 FILLER_0_30_276
*1000 FILLER_0_30_280
*1001 FILLER_0_30_29
*1002 FILLER_0_30_3
*1003 FILLER_0_30_309
*1004 FILLER_0_30_331
*1005 FILLER_0_30_41
*1006 FILLER_0_30_53
*1007 FILLER_0_30_65
*1008 FILLER_0_30_77
*1009 FILLER_0_30_83
*1010 FILLER_0_30_85
*1011 FILLER_0_30_97
*1012 FILLER_0_31_105
*1013 FILLER_0_31_111
*1014 FILLER_0_31_113
*1015 FILLER_0_31_125
*1016 FILLER_0_31_137
*1017 FILLER_0_31_149
*1018 FILLER_0_31_15
*1019 FILLER_0_31_161
*1020 FILLER_0_31_167
*1021 FILLER_0_31_169
*1022 FILLER_0_31_181
*1023 FILLER_0_31_193
*1024 FILLER_0_31_221
*1025 FILLER_0_31_252
*1026 FILLER_0_31_27
*1027 FILLER_0_31_276
*1028 FILLER_0_31_290
*1029 FILLER_0_31_3
*1030 FILLER_0_31_305
*1031 FILLER_0_31_311
*1032 FILLER_0_31_321
*1033 FILLER_0_31_333
*1034 FILLER_0_31_39
*1035 FILLER_0_31_51
*1036 FILLER_0_31_55
*1037 FILLER_0_31_57
*1038 FILLER_0_31_69
*1039 FILLER_0_31_81
*1040 FILLER_0_31_93
*1041 FILLER_0_32_109
*1042 FILLER_0_32_121
*1043 FILLER_0_32_133
*1044 FILLER_0_32_139
*1045 FILLER_0_32_141
*1046 FILLER_0_32_15
*1047 FILLER_0_32_153
*1048 FILLER_0_32_165
*1049 FILLER_0_32_173
*1050 FILLER_0_32_194
*1051 FILLER_0_32_197
*1052 FILLER_0_32_215
*1053 FILLER_0_32_229
*1054 FILLER_0_32_241
*1055 FILLER_0_32_251
*1056 FILLER_0_32_27
*1057 FILLER_0_32_29
*1058 FILLER_0_32_294
*1059 FILLER_0_32_3
*1060 FILLER_0_32_306
*1061 FILLER_0_32_329
*1062 FILLER_0_32_41
*1063 FILLER_0_32_53
*1064 FILLER_0_32_65
*1065 FILLER_0_32_77
*1066 FILLER_0_32_83
*1067 FILLER_0_32_85
*1068 FILLER_0_32_97
*1069 FILLER_0_33_105
*1070 FILLER_0_33_111
*1071 FILLER_0_33_113
*1072 FILLER_0_33_125
*1073 FILLER_0_33_137
*1074 FILLER_0_33_149
*1075 FILLER_0_33_15
*1076 FILLER_0_33_161
*1077 FILLER_0_33_167
*1078 FILLER_0_33_169
*1079 FILLER_0_33_228
*1080 FILLER_0_33_253
*1081 FILLER_0_33_257
*1082 FILLER_0_33_27
*1083 FILLER_0_33_281
*1084 FILLER_0_33_290
*1085 FILLER_0_33_3
*1086 FILLER_0_33_302
*1087 FILLER_0_33_39
*1088 FILLER_0_33_51
*1089 FILLER_0_33_55
*1090 FILLER_0_33_57
*1091 FILLER_0_33_69
*1092 FILLER_0_33_81
*1093 FILLER_0_33_93
*1094 FILLER_0_34_109
*1095 FILLER_0_34_121
*1096 FILLER_0_34_133
*1097 FILLER_0_34_139
*1098 FILLER_0_34_141
*1099 FILLER_0_34_15
*1100 FILLER_0_34_153
*1101 FILLER_0_34_165
*1102 FILLER_0_34_171
*1103 FILLER_0_34_195
*1104 FILLER_0_34_245
*1105 FILLER_0_34_27
*1106 FILLER_0_34_29
*1107 FILLER_0_34_297
*1108 FILLER_0_34_3
*1109 FILLER_0_34_327
*1110 FILLER_0_34_41
*1111 FILLER_0_34_53
*1112 FILLER_0_34_65
*1113 FILLER_0_34_77
*1114 FILLER_0_34_83
*1115 FILLER_0_34_85
*1116 FILLER_0_34_97
*1117 FILLER_0_35_105
*1118 FILLER_0_35_111
*1119 FILLER_0_35_113
*1120 FILLER_0_35_125
*1121 FILLER_0_35_137
*1122 FILLER_0_35_149
*1123 FILLER_0_35_15
*1124 FILLER_0_35_161
*1125 FILLER_0_35_167
*1126 FILLER_0_35_169
*1127 FILLER_0_35_27
*1128 FILLER_0_35_273
*1129 FILLER_0_35_277
*1130 FILLER_0_35_3
*1131 FILLER_0_35_333
*1132 FILLER_0_35_39
*1133 FILLER_0_35_51
*1134 FILLER_0_35_55
*1135 FILLER_0_35_57
*1136 FILLER_0_35_69
*1137 FILLER_0_35_81
*1138 FILLER_0_35_93
*1139 FILLER_0_36_109
*1140 FILLER_0_36_121
*1141 FILLER_0_36_133
*1142 FILLER_0_36_139
*1143 FILLER_0_36_141
*1144 FILLER_0_36_15
*1145 FILLER_0_36_153
*1146 FILLER_0_36_165
*1147 FILLER_0_36_216
*1148 FILLER_0_36_247
*1149 FILLER_0_36_251
*1150 FILLER_0_36_27
*1151 FILLER_0_36_29
*1152 FILLER_0_36_3
*1153 FILLER_0_36_302
*1154 FILLER_0_36_329
*1155 FILLER_0_36_41
*1156 FILLER_0_36_53
*1157 FILLER_0_36_65
*1158 FILLER_0_36_77
*1159 FILLER_0_36_83
*1160 FILLER_0_36_85
*1161 FILLER_0_36_97
*1162 FILLER_0_37_105
*1163 FILLER_0_37_111
*1164 FILLER_0_37_113
*1165 FILLER_0_37_125
*1166 FILLER_0_37_137
*1167 FILLER_0_37_149
*1168 FILLER_0_37_15
*1169 FILLER_0_37_161
*1170 FILLER_0_37_167
*1171 FILLER_0_37_169
*1172 FILLER_0_37_203
*1173 FILLER_0_37_225
*1174 FILLER_0_37_27
*1175 FILLER_0_37_281
*1176 FILLER_0_37_293
*1177 FILLER_0_37_297
*1178 FILLER_0_37_3
*1179 FILLER_0_37_334
*1180 FILLER_0_37_39
*1181 FILLER_0_37_51
*1182 FILLER_0_37_55
*1183 FILLER_0_37_57
*1184 FILLER_0_37_69
*1185 FILLER_0_37_81
*1186 FILLER_0_37_93
*1187 FILLER_0_38_10
*1188 FILLER_0_38_102
*1189 FILLER_0_38_106
*1190 FILLER_0_38_110
*1191 FILLER_0_38_113
*1192 FILLER_0_38_118
*1193 FILLER_0_38_122
*1194 FILLER_0_38_126
*1195 FILLER_0_38_130
*1196 FILLER_0_38_134
*1197 FILLER_0_38_14
*1198 FILLER_0_38_144
*1199 FILLER_0_38_150
*1200 FILLER_0_38_154
*1201 FILLER_0_38_158
*1202 FILLER_0_38_162
*1203 FILLER_0_38_166
*1204 FILLER_0_38_169
*1205 FILLER_0_38_174
*1206 FILLER_0_38_178
*1207 FILLER_0_38_18
*1208 FILLER_0_38_182
*1209 FILLER_0_38_197
*1210 FILLER_0_38_207
*1211 FILLER_0_38_213
*1212 FILLER_0_38_217
*1213 FILLER_0_38_22
*1214 FILLER_0_38_223
*1215 FILLER_0_38_225
*1216 FILLER_0_38_230
*1217 FILLER_0_38_249
*1218 FILLER_0_38_253
*1219 FILLER_0_38_261
*1220 FILLER_0_38_267
*1221 FILLER_0_38_277
*1222 FILLER_0_38_281
*1223 FILLER_0_38_293
*1224 FILLER_0_38_318
*1225 FILLER_0_38_32
*1226 FILLER_0_38_329
*1227 FILLER_0_38_38
*1228 FILLER_0_38_42
*1229 FILLER_0_38_46
*1230 FILLER_0_38_50
*1231 FILLER_0_38_54
*1232 FILLER_0_38_57
*1233 FILLER_0_38_6
*1234 FILLER_0_38_62
*1235 FILLER_0_38_66
*1236 FILLER_0_38_70
*1237 FILLER_0_38_74
*1238 FILLER_0_38_78
*1239 FILLER_0_38_88
*1240 FILLER_0_38_94
*1241 FILLER_0_38_98
*1242 FILLER_0_3_105
*1243 FILLER_0_3_111
*1244 FILLER_0_3_113
*1245 FILLER_0_3_125
*1246 FILLER_0_3_137
*1247 FILLER_0_3_149
*1248 FILLER_0_3_15
*1249 FILLER_0_3_161
*1250 FILLER_0_3_167
*1251 FILLER_0_3_169
*1252 FILLER_0_3_181
*1253 FILLER_0_3_193
*1254 FILLER_0_3_205
*1255 FILLER_0_3_217
*1256 FILLER_0_3_223
*1257 FILLER_0_3_225
*1258 FILLER_0_3_237
*1259 FILLER_0_3_249
*1260 FILLER_0_3_261
*1261 FILLER_0_3_27
*1262 FILLER_0_3_273
*1263 FILLER_0_3_279
*1264 FILLER_0_3_281
*1265 FILLER_0_3_293
*1266 FILLER_0_3_3
*1267 FILLER_0_3_305
*1268 FILLER_0_3_317
*1269 FILLER_0_3_329
*1270 FILLER_0_3_39
*1271 FILLER_0_3_51
*1272 FILLER_0_3_55
*1273 FILLER_0_3_57
*1274 FILLER_0_3_69
*1275 FILLER_0_3_81
*1276 FILLER_0_3_93
*1277 FILLER_0_4_109
*1278 FILLER_0_4_121
*1279 FILLER_0_4_133
*1280 FILLER_0_4_139
*1281 FILLER_0_4_141
*1282 FILLER_0_4_15
*1283 FILLER_0_4_153
*1284 FILLER_0_4_165
*1285 FILLER_0_4_177
*1286 FILLER_0_4_189
*1287 FILLER_0_4_195
*1288 FILLER_0_4_197
*1289 FILLER_0_4_209
*1290 FILLER_0_4_221
*1291 FILLER_0_4_233
*1292 FILLER_0_4_245
*1293 FILLER_0_4_251
*1294 FILLER_0_4_253
*1295 FILLER_0_4_265
*1296 FILLER_0_4_27
*1297 FILLER_0_4_277
*1298 FILLER_0_4_289
*1299 FILLER_0_4_29
*1300 FILLER_0_4_3
*1301 FILLER_0_4_301
*1302 FILLER_0_4_307
*1303 FILLER_0_4_309
*1304 FILLER_0_4_321
*1305 FILLER_0_4_333
*1306 FILLER_0_4_41
*1307 FILLER_0_4_53
*1308 FILLER_0_4_65
*1309 FILLER_0_4_77
*1310 FILLER_0_4_83
*1311 FILLER_0_4_85
*1312 FILLER_0_4_97
*1313 FILLER_0_5_105
*1314 FILLER_0_5_111
*1315 FILLER_0_5_113
*1316 FILLER_0_5_125
*1317 FILLER_0_5_137
*1318 FILLER_0_5_149
*1319 FILLER_0_5_15
*1320 FILLER_0_5_161
*1321 FILLER_0_5_167
*1322 FILLER_0_5_169
*1323 FILLER_0_5_181
*1324 FILLER_0_5_193
*1325 FILLER_0_5_205
*1326 FILLER_0_5_217
*1327 FILLER_0_5_223
*1328 FILLER_0_5_225
*1329 FILLER_0_5_237
*1330 FILLER_0_5_249
*1331 FILLER_0_5_261
*1332 FILLER_0_5_27
*1333 FILLER_0_5_273
*1334 FILLER_0_5_279
*1335 FILLER_0_5_281
*1336 FILLER_0_5_293
*1337 FILLER_0_5_3
*1338 FILLER_0_5_305
*1339 FILLER_0_5_317
*1340 FILLER_0_5_329
*1341 FILLER_0_5_39
*1342 FILLER_0_5_51
*1343 FILLER_0_5_55
*1344 FILLER_0_5_57
*1345 FILLER_0_5_69
*1346 FILLER_0_5_81
*1347 FILLER_0_5_93
*1348 FILLER_0_6_109
*1349 FILLER_0_6_121
*1350 FILLER_0_6_133
*1351 FILLER_0_6_139
*1352 FILLER_0_6_141
*1353 FILLER_0_6_15
*1354 FILLER_0_6_153
*1355 FILLER_0_6_165
*1356 FILLER_0_6_177
*1357 FILLER_0_6_189
*1358 FILLER_0_6_195
*1359 FILLER_0_6_197
*1360 FILLER_0_6_209
*1361 FILLER_0_6_221
*1362 FILLER_0_6_233
*1363 FILLER_0_6_245
*1364 FILLER_0_6_251
*1365 FILLER_0_6_253
*1366 FILLER_0_6_265
*1367 FILLER_0_6_27
*1368 FILLER_0_6_277
*1369 FILLER_0_6_289
*1370 FILLER_0_6_29
*1371 FILLER_0_6_3
*1372 FILLER_0_6_301
*1373 FILLER_0_6_307
*1374 FILLER_0_6_309
*1375 FILLER_0_6_321
*1376 FILLER_0_6_333
*1377 FILLER_0_6_41
*1378 FILLER_0_6_53
*1379 FILLER_0_6_65
*1380 FILLER_0_6_77
*1381 FILLER_0_6_83
*1382 FILLER_0_6_85
*1383 FILLER_0_6_97
*1384 FILLER_0_7_105
*1385 FILLER_0_7_111
*1386 FILLER_0_7_113
*1387 FILLER_0_7_125
*1388 FILLER_0_7_137
*1389 FILLER_0_7_149
*1390 FILLER_0_7_15
*1391 FILLER_0_7_161
*1392 FILLER_0_7_167
*1393 FILLER_0_7_169
*1394 FILLER_0_7_181
*1395 FILLER_0_7_193
*1396 FILLER_0_7_205
*1397 FILLER_0_7_217
*1398 FILLER_0_7_223
*1399 FILLER_0_7_225
*1400 FILLER_0_7_237
*1401 FILLER_0_7_249
*1402 FILLER_0_7_261
*1403 FILLER_0_7_27
*1404 FILLER_0_7_273
*1405 FILLER_0_7_279
*1406 FILLER_0_7_281
*1407 FILLER_0_7_293
*1408 FILLER_0_7_3
*1409 FILLER_0_7_305
*1410 FILLER_0_7_317
*1411 FILLER_0_7_329
*1412 FILLER_0_7_39
*1413 FILLER_0_7_51
*1414 FILLER_0_7_55
*1415 FILLER_0_7_57
*1416 FILLER_0_7_69
*1417 FILLER_0_7_81
*1418 FILLER_0_7_93
*1419 FILLER_0_8_109
*1420 FILLER_0_8_121
*1421 FILLER_0_8_133
*1422 FILLER_0_8_139
*1423 FILLER_0_8_141
*1424 FILLER_0_8_15
*1425 FILLER_0_8_153
*1426 FILLER_0_8_165
*1427 FILLER_0_8_177
*1428 FILLER_0_8_189
*1429 FILLER_0_8_195
*1430 FILLER_0_8_197
*1431 FILLER_0_8_209
*1432 FILLER_0_8_221
*1433 FILLER_0_8_233
*1434 FILLER_0_8_245
*1435 FILLER_0_8_251
*1436 FILLER_0_8_253
*1437 FILLER_0_8_265
*1438 FILLER_0_8_27
*1439 FILLER_0_8_277
*1440 FILLER_0_8_289
*1441 FILLER_0_8_29
*1442 FILLER_0_8_3
*1443 FILLER_0_8_301
*1444 FILLER_0_8_307
*1445 FILLER_0_8_309
*1446 FILLER_0_8_321
*1447 FILLER_0_8_333
*1448 FILLER_0_8_41
*1449 FILLER_0_8_53
*1450 FILLER_0_8_65
*1451 FILLER_0_8_77
*1452 FILLER_0_8_83
*1453 FILLER_0_8_85
*1454 FILLER_0_8_97
*1455 FILLER_0_9_105
*1456 FILLER_0_9_111
*1457 FILLER_0_9_113
*1458 FILLER_0_9_125
*1459 FILLER_0_9_137
*1460 FILLER_0_9_149
*1461 FILLER_0_9_15
*1462 FILLER_0_9_161
*1463 FILLER_0_9_167
*1464 FILLER_0_9_169
*1465 FILLER_0_9_181
*1466 FILLER_0_9_193
*1467 FILLER_0_9_205
*1468 FILLER_0_9_217