*SPEF "ieee 1481-1999"
*DESIGN "tt_um_i_tree_batzolislefteris"
*DATE "21:19:06 Monday April 15, 2024"
*VENDOR "The OpenROAD Project"
*PROGRAM "OpenROAD"
*VERSION "0889970d1790a2617e69f253221b8bd7626e51dc"
*DESIGN_FLOW "NAME_SCOPE LOCAL" "PIN_CAP NONE"
*DIVIDER /
*DELIMITER :
*BUS_DELIMITER []
*T_UNIT 1 NS
*C_UNIT 1 PF
*R_UNIT 1 OHM
*L_UNIT 1 HENRY

*NAME_MAP
*3 clk
*4 ena
*5 rst_n
*6 ui_in[0]
*7 ui_in[1]
*8 ui_in[2]
*9 ui_in[3]
*10 ui_in[4]
*11 ui_in[5]
*12 ui_in[6]
*13 ui_in[7]
*14 uio_in[0]
*15 uio_in[1]
*16 uio_in[2]
*17 uio_in[3]
*18 uio_in[4]
*19 uio_in[5]
*20 uio_in[6]
*21 uio_in[7]
*22 net6
*23 net7
*24 net8
*25 net9
*26 net10
*27 net11
*28 net12
*29 net13
*30 net14
*31 net15
*32 net16
*33 net17
*34 net18
*35 net19
*36 net20
*37 net21
*38 uo_out[0]
*39 net22
*40 net23
*41 net24
*42 net25
*43 net26
*44 net27
*45 net28
*46 _000_
*47 _001_
*48 _002_
*49 _003_
*50 _004_
*51 _005_
*52 _006_
*53 _007_
*54 _008_
*55 _009_
*56 _010_
*57 _011_
*58 _012_
*59 _013_
*60 _014_
*61 _015_
*62 _016_
*63 _017_
*64 _018_
*65 _019_
*66 _020_
*67 _021_
*68 _022_
*69 _023_
*70 _024_
*71 _025_
*72 _026_
*73 _027_
*74 _028_
*75 _029_
*76 _030_
*77 _031_
*78 _032_
*79 _033_
*80 _034_
*81 _035_
*82 _036_
*83 _037_
*84 _038_
*85 _039_
*86 _040_
*87 _041_
*88 _042_
*89 _043_
*90 _044_
*91 _045_
*92 _046_
*93 _047_
*94 _048_
*95 _049_
*96 _050_
*97 _051_
*98 _052_
*99 _053_
*100 _054_
*101 _055_
*102 _056_
*103 _057_
*104 _058_
*105 _059_
*106 _060_
*107 _061_
*108 clknet_0_clk
*109 clknet_1_0__leaf_clk
*110 clknet_1_1__leaf_clk
*111 i_tree\.anomaly_detected
*112 i_tree\.data_from_buffer\[0\]
*113 i_tree\.data_from_buffer\[1\]
*114 i_tree\.data_from_buffer\[2\]
*115 i_tree\.data_from_buffer\[3\]
*116 i_tree\.data_from_buffer\[4\]
*117 i_tree\.data_from_buffer\[5\]
*118 i_tree\.data_from_buffer\[6\]
*119 i_tree\.data_from_buffer\[7\]
*120 i_tree\.data_processed
*121 i_tree\.data_ready
*122 i_tree\.input_buffer_inst\.bit_count\[0\]
*123 i_tree\.input_buffer_inst\.bit_count\[1\]
*124 i_tree\.input_buffer_inst\.bit_count\[2\]
*125 i_tree\.input_buffer_inst\.shift_register\[0\]
*126 i_tree\.input_buffer_inst\.shift_register\[1\]
*127 i_tree\.input_buffer_inst\.shift_register\[2\]
*128 i_tree\.input_buffer_inst\.shift_register\[3\]
*129 i_tree\.input_buffer_inst\.shift_register\[4\]
*130 i_tree\.input_buffer_inst\.shift_register\[5\]
*131 i_tree\.input_buffer_inst\.shift_register\[6\]
*132 i_tree\.input_buffer_inst\.shift_register\[7\]
*133 i_tree\.isolation_tree_state_machine_inst\.current_state\[0\]
*134 i_tree\.isolation_tree_state_machine_inst\.current_state\[1\]
*135 i_tree\.isolation_tree_state_machine_inst\.next_state\[0\]
*136 i_tree\.isolation_tree_state_machine_inst\.next_state\[1\]
*137 net1
*138 net2
*139 net29
*140 net3
*141 net30
*142 net31
*143 net32
*144 net33
*145 net34
*146 net35
*147 net36
*148 net37
*149 net38
*150 net39
*151 net4
*152 net40
*153 net41
*154 net42
*155 net43
*156 net44
*157 net45
*158 net46
*159 net47
*160 net5
*161 FILLER_0_0_109
*162 FILLER_0_0_113
*163 FILLER_0_0_125
*164 FILLER_0_0_137
*165 FILLER_0_0_141
*166 FILLER_0_0_15
*167 FILLER_0_0_153
*168 FILLER_0_0_165
*169 FILLER_0_0_169
*170 FILLER_0_0_181
*171 FILLER_0_0_193
*172 FILLER_0_0_197
*173 FILLER_0_0_209
*174 FILLER_0_0_221
*175 FILLER_0_0_225
*176 FILLER_0_0_237
*177 FILLER_0_0_249
*178 FILLER_0_0_253
*179 FILLER_0_0_265
*180 FILLER_0_0_27
*181 FILLER_0_0_277
*182 FILLER_0_0_281
*183 FILLER_0_0_29
*184 FILLER_0_0_293
*185 FILLER_0_0_3
*186 FILLER_0_0_305
*187 FILLER_0_0_309
*188 FILLER_0_0_321
*189 FILLER_0_0_333
*190 FILLER_0_0_41
*191 FILLER_0_0_53
*192 FILLER_0_0_57
*193 FILLER_0_0_69
*194 FILLER_0_0_81
*195 FILLER_0_0_85
*196 FILLER_0_0_97
*197 FILLER_0_10_109
*198 FILLER_0_10_121
*199 FILLER_0_10_133
*200 FILLER_0_10_139
*201 FILLER_0_10_141
*202 FILLER_0_10_15
*203 FILLER_0_10_153
*204 FILLER_0_10_165
*205 FILLER_0_10_177
*206 FILLER_0_10_189
*207 FILLER_0_10_195
*208 FILLER_0_10_197
*209 FILLER_0_10_209
*210 FILLER_0_10_221
*211 FILLER_0_10_233
*212 FILLER_0_10_245
*213 FILLER_0_10_251
*214 FILLER_0_10_253
*215 FILLER_0_10_265
*216 FILLER_0_10_27
*217 FILLER_0_10_277
*218 FILLER_0_10_289
*219 FILLER_0_10_29
*220 FILLER_0_10_3
*221 FILLER_0_10_301
*222 FILLER_0_10_307
*223 FILLER_0_10_309
*224 FILLER_0_10_321
*225 FILLER_0_10_333
*226 FILLER_0_10_41
*227 FILLER_0_10_53
*228 FILLER_0_10_65
*229 FILLER_0_10_77
*230 FILLER_0_10_83
*231 FILLER_0_10_85
*232 FILLER_0_10_97
*233 FILLER_0_11_105
*234 FILLER_0_11_111
*235 FILLER_0_11_113
*236 FILLER_0_11_125
*237 FILLER_0_11_137
*238 FILLER_0_11_149
*239 FILLER_0_11_15
*240 FILLER_0_11_161
*241 FILLER_0_11_167
*242 FILLER_0_11_169
*243 FILLER_0_11_181
*244 FILLER_0_11_193
*245 FILLER_0_11_205
*246 FILLER_0_11_217
*247 FILLER_0_11_223
*248 FILLER_0_11_225
*249 FILLER_0_11_237
*250 FILLER_0_11_249
*251 FILLER_0_11_261
*252 FILLER_0_11_27
*253 FILLER_0_11_273
*254 FILLER_0_11_279
*255 FILLER_0_11_281
*256 FILLER_0_11_293
*257 FILLER_0_11_3
*258 FILLER_0_11_305
*259 FILLER_0_11_317
*260 FILLER_0_11_329
*261 FILLER_0_11_39
*262 FILLER_0_11_51
*263 FILLER_0_11_55
*264 FILLER_0_11_57
*265 FILLER_0_11_69
*266 FILLER_0_11_81
*267 FILLER_0_11_93
*268 FILLER_0_12_109
*269 FILLER_0_12_121
*270 FILLER_0_12_133
*271 FILLER_0_12_139
*272 FILLER_0_12_141
*273 FILLER_0_12_15
*274 FILLER_0_12_153
*275 FILLER_0_12_165
*276 FILLER_0_12_177
*277 FILLER_0_12_189
*278 FILLER_0_12_195
*279 FILLER_0_12_197
*280 FILLER_0_12_209
*281 FILLER_0_12_221
*282 FILLER_0_12_233
*283 FILLER_0_12_245
*284 FILLER_0_12_251
*285 FILLER_0_12_253
*286 FILLER_0_12_265
*287 FILLER_0_12_27
*288 FILLER_0_12_277
*289 FILLER_0_12_289
*290 FILLER_0_12_29
*291 FILLER_0_12_3
*292 FILLER_0_12_301
*293 FILLER_0_12_307
*294 FILLER_0_12_309
*295 FILLER_0_12_321
*296 FILLER_0_12_333
*297 FILLER_0_12_41
*298 FILLER_0_12_53
*299 FILLER_0_12_65
*300 FILLER_0_12_77
*301 FILLER_0_12_83
*302 FILLER_0_12_85
*303 FILLER_0_12_97
*304 FILLER_0_13_105
*305 FILLER_0_13_111
*306 FILLER_0_13_113
*307 FILLER_0_13_125
*308 FILLER_0_13_137
*309 FILLER_0_13_149
*310 FILLER_0_13_15
*311 FILLER_0_13_161
*312 FILLER_0_13_167
*313 FILLER_0_13_169
*314 FILLER_0_13_181
*315 FILLER_0_13_193
*316 FILLER_0_13_205
*317 FILLER_0_13_217
*318 FILLER_0_13_223
*319 FILLER_0_13_225
*320 FILLER_0_13_237
*321 FILLER_0_13_249
*322 FILLER_0_13_261
*323 FILLER_0_13_27
*324 FILLER_0_13_273
*325 FILLER_0_13_279
*326 FILLER_0_13_281
*327 FILLER_0_13_293
*328 FILLER_0_13_3
*329 FILLER_0_13_305
*330 FILLER_0_13_317
*331 FILLER_0_13_329
*332 FILLER_0_13_39
*333 FILLER_0_13_51
*334 FILLER_0_13_55
*335 FILLER_0_13_57
*336 FILLER_0_13_69
*337 FILLER_0_13_81
*338 FILLER_0_13_93
*339 FILLER_0_14_109
*340 FILLER_0_14_121
*341 FILLER_0_14_133
*342 FILLER_0_14_139
*343 FILLER_0_14_141
*344 FILLER_0_14_15
*345 FILLER_0_14_153
*346 FILLER_0_14_165
*347 FILLER_0_14_177
*348 FILLER_0_14_189
*349 FILLER_0_14_195
*350 FILLER_0_14_197
*351 FILLER_0_14_209
*352 FILLER_0_14_221
*353 FILLER_0_14_233
*354 FILLER_0_14_245
*355 FILLER_0_14_251
*356 FILLER_0_14_253
*357 FILLER_0_14_265
*358 FILLER_0_14_27
*359 FILLER_0_14_277
*360 FILLER_0_14_289
*361 FILLER_0_14_29
*362 FILLER_0_14_3
*363 FILLER_0_14_301
*364 FILLER_0_14_307
*365 FILLER_0_14_309
*366 FILLER_0_14_321
*367 FILLER_0_14_333
*368 FILLER_0_14_41
*369 FILLER_0_14_53
*370 FILLER_0_14_65
*371 FILLER_0_14_77
*372 FILLER_0_14_83
*373 FILLER_0_14_85
*374 FILLER_0_14_97
*375 FILLER_0_15_105
*376 FILLER_0_15_111
*377 FILLER_0_15_113
*378 FILLER_0_15_125
*379 FILLER_0_15_137
*380 FILLER_0_15_149
*381 FILLER_0_15_15
*382 FILLER_0_15_161
*383 FILLER_0_15_167
*384 FILLER_0_15_169
*385 FILLER_0_15_181
*386 FILLER_0_15_193
*387 FILLER_0_15_205
*388 FILLER_0_15_217
*389 FILLER_0_15_223
*390 FILLER_0_15_225
*391 FILLER_0_15_237
*392 FILLER_0_15_249
*393 FILLER_0_15_261
*394 FILLER_0_15_27
*395 FILLER_0_15_273
*396 FILLER_0_15_279
*397 FILLER_0_15_281
*398 FILLER_0_15_293
*399 FILLER_0_15_3
*400 FILLER_0_15_305
*401 FILLER_0_15_317
*402 FILLER_0_15_329
*403 FILLER_0_15_39
*404 FILLER_0_15_51
*405 FILLER_0_15_55
*406 FILLER_0_15_57
*407 FILLER_0_15_69
*408 FILLER_0_15_81
*409 FILLER_0_15_93
*410 FILLER_0_16_109
*411 FILLER_0_16_121
*412 FILLER_0_16_133
*413 FILLER_0_16_139
*414 FILLER_0_16_141
*415 FILLER_0_16_15
*416 FILLER_0_16_153
*417 FILLER_0_16_165
*418 FILLER_0_16_177
*419 FILLER_0_16_189
*420 FILLER_0_16_195
*421 FILLER_0_16_197
*422 FILLER_0_16_209
*423 FILLER_0_16_221
*424 FILLER_0_16_233
*425 FILLER_0_16_245
*426 FILLER_0_16_251
*427 FILLER_0_16_253
*428 FILLER_0_16_265
*429 FILLER_0_16_27
*430 FILLER_0_16_277
*431 FILLER_0_16_289
*432 FILLER_0_16_29
*433 FILLER_0_16_3
*434 FILLER_0_16_301
*435 FILLER_0_16_307
*436 FILLER_0_16_309
*437 FILLER_0_16_321
*438 FILLER_0_16_333
*439 FILLER_0_16_41
*440 FILLER_0_16_53
*441 FILLER_0_16_65
*442 FILLER_0_16_77
*443 FILLER_0_16_83
*444 FILLER_0_16_85
*445 FILLER_0_16_97
*446 FILLER_0_17_105
*447 FILLER_0_17_111
*448 FILLER_0_17_113
*449 FILLER_0_17_125
*450 FILLER_0_17_137
*451 FILLER_0_17_149
*452 FILLER_0_17_15
*453 FILLER_0_17_161
*454 FILLER_0_17_167
*455 FILLER_0_17_169
*456 FILLER_0_17_181
*457 FILLER_0_17_193
*458 FILLER_0_17_205
*459 FILLER_0_17_217
*460 FILLER_0_17_223
*461 FILLER_0_17_225
*462 FILLER_0_17_237
*463 FILLER_0_17_249
*464 FILLER_0_17_261
*465 FILLER_0_17_27
*466 FILLER_0_17_273
*467 FILLER_0_17_279
*468 FILLER_0_17_281
*469 FILLER_0_17_293
*470 FILLER_0_17_3
*471 FILLER_0_17_305
*472 FILLER_0_17_317
*473 FILLER_0_17_329
*474 FILLER_0_17_39
*475 FILLER_0_17_51
*476 FILLER_0_17_55
*477 FILLER_0_17_57
*478 FILLER_0_17_69
*479 FILLER_0_17_81
*480 FILLER_0_17_93
*481 FILLER_0_18_109
*482 FILLER_0_18_121
*483 FILLER_0_18_133
*484 FILLER_0_18_139
*485 FILLER_0_18_141
*486 FILLER_0_18_15
*487 FILLER_0_18_153
*488 FILLER_0_18_165
*489 FILLER_0_18_177
*490 FILLER_0_18_189
*491 FILLER_0_18_195
*492 FILLER_0_18_197
*493 FILLER_0_18_209
*494 FILLER_0_18_221
*495 FILLER_0_18_233
*496 FILLER_0_18_245
*497 FILLER_0_18_251
*498 FILLER_0_18_253
*499 FILLER_0_18_265
*500 FILLER_0_18_27
*501 FILLER_0_18_277
*502 FILLER_0_18_289
*503 FILLER_0_18_29
*504 FILLER_0_18_3
*505 FILLER_0_18_301
*506 FILLER_0_18_307
*507 FILLER_0_18_309
*508 FILLER_0_18_321
*509 FILLER_0_18_333
*510 FILLER_0_18_41
*511 FILLER_0_18_53
*512 FILLER_0_18_65
*513 FILLER_0_18_77
*514 FILLER_0_18_83
*515 FILLER_0_18_85
*516 FILLER_0_18_97
*517 FILLER_0_19_105
*518 FILLER_0_19_111
*519 FILLER_0_19_113
*520 FILLER_0_19_125
*521 FILLER_0_19_137
*522 FILLER_0_19_149
*523 FILLER_0_19_15
*524 FILLER_0_19_161
*525 FILLER_0_19_167
*526 FILLER_0_19_169
*527 FILLER_0_19_181
*528 FILLER_0_19_193
*529 FILLER_0_19_205
*530 FILLER_0_19_217
*531 FILLER_0_19_223
*532 FILLER_0_19_225
*533 FILLER_0_19_237
*534 FILLER_0_19_249
*535 FILLER_0_19_261
*536 FILLER_0_19_27
*537 FILLER_0_19_273
*538 FILLER_0_19_279
*539 FILLER_0_19_281
*540 FILLER_0_19_293
*541 FILLER_0_19_3
*542 FILLER_0_19_305
*543 FILLER_0_19_317
*544 FILLER_0_19_329
*545 FILLER_0_19_39
*546 FILLER_0_19_51
*547 FILLER_0_19_55
*548 FILLER_0_19_57
*549 FILLER_0_19_69
*550 FILLER_0_19_81
*551 FILLER_0_19_93
*552 FILLER_0_1_105
*553 FILLER_0_1_111
*554 FILLER_0_1_113
*555 FILLER_0_1_125
*556 FILLER_0_1_137
*557 FILLER_0_1_149
*558 FILLER_0_1_15
*559 FILLER_0_1_161
*560 FILLER_0_1_167
*561 FILLER_0_1_169
*562 FILLER_0_1_181
*563 FILLER_0_1_193
*564 FILLER_0_1_205
*565 FILLER_0_1_217
*566 FILLER_0_1_223
*567 FILLER_0_1_225
*568 FILLER_0_1_237
*569 FILLER_0_1_249
*570 FILLER_0_1_261
*571 FILLER_0_1_27
*572 FILLER_0_1_273
*573 FILLER_0_1_279
*574 FILLER_0_1_281
*575 FILLER_0_1_293
*576 FILLER_0_1_3
*577 FILLER_0_1_305
*578 FILLER_0_1_317
*579 FILLER_0_1_329
*580 FILLER_0_1_39
*581 FILLER_0_1_51
*582 FILLER_0_1_55
*583 FILLER_0_1_57
*584 FILLER_0_1_69
*585 FILLER_0_1_81
*586 FILLER_0_1_93
*587 FILLER_0_20_109
*588 FILLER_0_20_121
*589 FILLER_0_20_133
*590 FILLER_0_20_139
*591 FILLER_0_20_141
*592 FILLER_0_20_15
*593 FILLER_0_20_153
*594 FILLER_0_20_165
*595 FILLER_0_20_177
*596 FILLER_0_20_189
*597 FILLER_0_20_195
*598 FILLER_0_20_197
*599 FILLER_0_20_209
*600 FILLER_0_20_221
*601 FILLER_0_20_233
*602 FILLER_0_20_245
*603 FILLER_0_20_251
*604 FILLER_0_20_253
*605 FILLER_0_20_265
*606 FILLER_0_20_27
*607 FILLER_0_20_277
*608 FILLER_0_20_289
*609 FILLER_0_20_29
*610 FILLER_0_20_3
*611 FILLER_0_20_301
*612 FILLER_0_20_307
*613 FILLER_0_20_309
*614 FILLER_0_20_321
*615 FILLER_0_20_333
*616 FILLER_0_20_41
*617 FILLER_0_20_53
*618 FILLER_0_20_65
*619 FILLER_0_20_77
*620 FILLER_0_20_83
*621 FILLER_0_20_85
*622 FILLER_0_20_97
*623 FILLER_0_21_105
*624 FILLER_0_21_111
*625 FILLER_0_21_113
*626 FILLER_0_21_125
*627 FILLER_0_21_137
*628 FILLER_0_21_149
*629 FILLER_0_21_15
*630 FILLER_0_21_161
*631 FILLER_0_21_167
*632 FILLER_0_21_169
*633 FILLER_0_21_181
*634 FILLER_0_21_193
*635 FILLER_0_21_205
*636 FILLER_0_21_217
*637 FILLER_0_21_223
*638 FILLER_0_21_225
*639 FILLER_0_21_237
*640 FILLER_0_21_249
*641 FILLER_0_21_261
*642 FILLER_0_21_27
*643 FILLER_0_21_273
*644 FILLER_0_21_279
*645 FILLER_0_21_281
*646 FILLER_0_21_293
*647 FILLER_0_21_3
*648 FILLER_0_21_305
*649 FILLER_0_21_317
*650 FILLER_0_21_329
*651 FILLER_0_21_39
*652 FILLER_0_21_51
*653 FILLER_0_21_55
*654 FILLER_0_21_57
*655 FILLER_0_21_69
*656 FILLER_0_21_81
*657 FILLER_0_21_93
*658 FILLER_0_22_109
*659 FILLER_0_22_121
*660 FILLER_0_22_133
*661 FILLER_0_22_139
*662 FILLER_0_22_141
*663 FILLER_0_22_15
*664 FILLER_0_22_153
*665 FILLER_0_22_165
*666 FILLER_0_22_177
*667 FILLER_0_22_189
*668 FILLER_0_22_195
*669 FILLER_0_22_197
*670 FILLER_0_22_209
*671 FILLER_0_22_221
*672 FILLER_0_22_233
*673 FILLER_0_22_245
*674 FILLER_0_22_251
*675 FILLER_0_22_253
*676 FILLER_0_22_265
*677 FILLER_0_22_27
*678 FILLER_0_22_277
*679 FILLER_0_22_289
*680 FILLER_0_22_29
*681 FILLER_0_22_3
*682 FILLER_0_22_301
*683 FILLER_0_22_307
*684 FILLER_0_22_309
*685 FILLER_0_22_321
*686 FILLER_0_22_333
*687 FILLER_0_22_41
*688 FILLER_0_22_53
*689 FILLER_0_22_65
*690 FILLER_0_22_77
*691 FILLER_0_22_83
*692 FILLER_0_22_85
*693 FILLER_0_22_97
*694 FILLER_0_23_105
*695 FILLER_0_23_111
*696 FILLER_0_23_113
*697 FILLER_0_23_125
*698 FILLER_0_23_137
*699 FILLER_0_23_149
*700 FILLER_0_23_15
*701 FILLER_0_23_161
*702 FILLER_0_23_167
*703 FILLER_0_23_169
*704 FILLER_0_23_181
*705 FILLER_0_23_193
*706 FILLER_0_23_205
*707 FILLER_0_23_217
*708 FILLER_0_23_223
*709 FILLER_0_23_225
*710 FILLER_0_23_237
*711 FILLER_0_23_249
*712 FILLER_0_23_261
*713 FILLER_0_23_27
*714 FILLER_0_23_273
*715 FILLER_0_23_279
*716 FILLER_0_23_281
*717 FILLER_0_23_293
*718 FILLER_0_23_3
*719 FILLER_0_23_305
*720 FILLER_0_23_317
*721 FILLER_0_23_329
*722 FILLER_0_23_39
*723 FILLER_0_23_51
*724 FILLER_0_23_55
*725 FILLER_0_23_57
*726 FILLER_0_23_69
*727 FILLER_0_23_81
*728 FILLER_0_23_93
*729 FILLER_0_24_109
*730 FILLER_0_24_121
*731 FILLER_0_24_133
*732 FILLER_0_24_139
*733 FILLER_0_24_141
*734 FILLER_0_24_15
*735 FILLER_0_24_153
*736 FILLER_0_24_165
*737 FILLER_0_24_177
*738 FILLER_0_24_189
*739 FILLER_0_24_195
*740 FILLER_0_24_197
*741 FILLER_0_24_209
*742 FILLER_0_24_221
*743 FILLER_0_24_233
*744 FILLER_0_24_245
*745 FILLER_0_24_251
*746 FILLER_0_24_253
*747 FILLER_0_24_265
*748 FILLER_0_24_27
*749 FILLER_0_24_277
*750 FILLER_0_24_289
*751 FILLER_0_24_29
*752 FILLER_0_24_3
*753 FILLER_0_24_301
*754 FILLER_0_24_307
*755 FILLER_0_24_309
*756 FILLER_0_24_321
*757 FILLER_0_24_333
*758 FILLER_0_24_41
*759 FILLER_0_24_53
*760 FILLER_0_24_65
*761 FILLER_0_24_77
*762 FILLER_0_24_83
*763 FILLER_0_24_85
*764 FILLER_0_24_97
*765 FILLER_0_25_105
*766 FILLER_0_25_111
*767 FILLER_0_25_113
*768 FILLER_0_25_125
*769 FILLER_0_25_137
*770 FILLER_0_25_149
*771 FILLER_0_25_15
*772 FILLER_0_25_161
*773 FILLER_0_25_167
*774 FILLER_0_25_169
*775 FILLER_0_25_181
*776 FILLER_0_25_193
*777 FILLER_0_25_205
*778 FILLER_0_25_217
*779 FILLER_0_25_223
*780 FILLER_0_25_225
*781 FILLER_0_25_237
*782 FILLER_0_25_249
*783 FILLER_0_25_261
*784 FILLER_0_25_27
*785 FILLER_0_25_273
*786 FILLER_0_25_279
*787 FILLER_0_25_281
*788 FILLER_0_25_293
*789 FILLER_0_25_3
*790 FILLER_0_25_305
*791 FILLER_0_25_317
*792 FILLER_0_25_329
*793 FILLER_0_25_39
*794 FILLER_0_25_51
*795 FILLER_0_25_55
*796 FILLER_0_25_57
*797 FILLER_0_25_69
*798 FILLER_0_25_81
*799 FILLER_0_25_93
*800 FILLER_0_26_109
*801 FILLER_0_26_121
*802 FILLER_0_26_133
*803 FILLER_0_26_139
*804 FILLER_0_26_141
*805 FILLER_0_26_15
*806 FILLER_0_26_153
*807 FILLER_0_26_165
*808 FILLER_0_26_177
*809 FILLER_0_26_189
*810 FILLER_0_26_195
*811 FILLER_0_26_197
*812 FILLER_0_26_209
*813 FILLER_0_26_221
*814 FILLER_0_26_233
*815 FILLER_0_26_245
*816 FILLER_0_26_251
*817 FILLER_0_26_253
*818 FILLER_0_26_265
*819 FILLER_0_26_27
*820 FILLER_0_26_277
*821 FILLER_0_26_289
*822 FILLER_0_26_29
*823 FILLER_0_26_3
*824 FILLER_0_26_301
*825 FILLER_0_26_307
*826 FILLER_0_26_309
*827 FILLER_0_26_321
*828 FILLER_0_26_333
*829 FILLER_0_26_41
*830 FILLER_0_26_53
*831 FILLER_0_26_65
*832 FILLER_0_26_77
*833 FILLER_0_26_83
*834 FILLER_0_26_85
*835 FILLER_0_26_97
*836 FILLER_0_27_105
*837 FILLER_0_27_111
*838 FILLER_0_27_113
*839 FILLER_0_27_125
*840 FILLER_0_27_137
*841 FILLER_0_27_149
*842 FILLER_0_27_15
*843 FILLER_0_27_161
*844 FILLER_0_27_167
*845 FILLER_0_27_169
*846 FILLER_0_27_181
*847 FILLER_0_27_193
*848 FILLER_0_27_205
*849 FILLER_0_27_217
*850 FILLER_0_27_223
*851 FILLER_0_27_225
*852 FILLER_0_27_237
*853 FILLER_0_27_249
*854 FILLER_0_27_260
*855 FILLER_0_27_27
*856 FILLER_0_27_272
*857 FILLER_0_27_281
*858 FILLER_0_27_293
*859 FILLER_0_27_3
*860 FILLER_0_27_305
*861 FILLER_0_27_317
*862 FILLER_0_27_329
*863 FILLER_0_27_39
*864 FILLER_0_27_51
*865 FILLER_0_27_55
*866 FILLER_0_27_57
*867 FILLER_0_27_69
*868 FILLER_0_27_81
*869 FILLER_0_27_93
*870 FILLER_0_28_109
*871 FILLER_0_28_121
*872 FILLER_0_28_133
*873 FILLER_0_28_139
*874 FILLER_0_28_141
*875 FILLER_0_28_15
*876 FILLER_0_28_153
*877 FILLER_0_28_165
*878 FILLER_0_28_177
*879 FILLER_0_28_189
*880 FILLER_0_28_195
*881 FILLER_0_28_197
*882 FILLER_0_28_208
*883 FILLER_0_28_220
*884 FILLER_0_28_232
*885 FILLER_0_28_244
*886 FILLER_0_28_251
*887 FILLER_0_28_262
*888 FILLER_0_28_27
*889 FILLER_0_28_274
*890 FILLER_0_28_286
*891 FILLER_0_28_29
*892 FILLER_0_28_3
*893 FILLER_0_28_305
*894 FILLER_0_28_309
*895 FILLER_0_28_321
*896 FILLER_0_28_333
*897 FILLER_0_28_41
*898 FILLER_0_28_53
*899 FILLER_0_28_65
*900 FILLER_0_28_77
*901 FILLER_0_28_83
*902 FILLER_0_28_85
*903 FILLER_0_28_97
*904 FILLER_0_29_105
*905 FILLER_0_29_111
*906 FILLER_0_29_113
*907 FILLER_0_29_125
*908 FILLER_0_29_137
*909 FILLER_0_29_149
*910 FILLER_0_29_15
*911 FILLER_0_29_161
*912 FILLER_0_29_167
*913 FILLER_0_29_169
*914 FILLER_0_29_181
*915 FILLER_0_29_193
*916 FILLER_0_29_199
*917 FILLER_0_29_220
*918 FILLER_0_29_27
*919 FILLER_0_29_279
*920 FILLER_0_29_281
*921 FILLER_0_29_287
*922 FILLER_0_29_3
*923 FILLER_0_29_308
*924 FILLER_0_29_319
*925 FILLER_0_29_323
*926 FILLER_0_29_332
*927 FILLER_0_29_39
*928 FILLER_0_29_51
*929 FILLER_0_29_55
*930 FILLER_0_29_57
*931 FILLER_0_29_69
*932 FILLER_0_29_81
*933 FILLER_0_29_93
*934 FILLER_0_2_109
*935 FILLER_0_2_121
*936 FILLER_0_2_133
*937 FILLER_0_2_139
*938 FILLER_0_2_141
*939 FILLER_0_2_15
*940 FILLER_0_2_153
*941 FILLER_0_2_165
*942 FILLER_0_2_177
*943 FILLER_0_2_189
*944 FILLER_0_2_195
*945 FILLER_0_2_197
*946 FILLER_0_2_209
*947 FILLER_0_2_221
*948 FILLER_0_2_233
*949 FILLER_0_2_245
*950 FILLER_0_2_251
*951 FILLER_0_2_253
*952 FILLER_0_2_265
*953 FILLER_0_2_27
*954 FILLER_0_2_277
*955 FILLER_0_2_289
*956 FILLER_0_2_29
*957 FILLER_0_2_3
*958 FILLER_0_2_301
*959 FILLER_0_2_307
*960 FILLER_0_2_309
*961 FILLER_0_2_321
*962 FILLER_0_2_333
*963 FILLER_0_2_41
*964 FILLER_0_2_53
*965 FILLER_0_2_65
*966 FILLER_0_2_77
*967 FILLER_0_2_83
*968 FILLER_0_2_85
*969 FILLER_0_2_97
*970 FILLER_0_30_109
*971 FILLER_0_30_121
*972 FILLER_0_30_133
*973 FILLER_0_30_139
*974 FILLER_0_30_141
*975 FILLER_0_30_15
*976 FILLER_0_30_153
*977 FILLER_0_30_165
*978 FILLER_0_30_177
*979 FILLER_0_30_189
*980 FILLER_0_30_195
*981 FILLER_0_30_197
*982 FILLER_0_30_236
*983 FILLER_0_30_253
*984 FILLER_0_30_27
*985 FILLER_0_30_276
*986 FILLER_0_30_29
*987 FILLER_0_30_3
*988 FILLER_0_30_309
*989 FILLER_0_30_334
*990 FILLER_0_30_41
*991 FILLER_0_30_53
*992 FILLER_0_30_65
*993 FILLER_0_30_77
*994 FILLER_0_30_83
*995 FILLER_0_30_85
*996 FILLER_0_30_97
*997 FILLER_0_31_105
*998 FILLER_0_31_111
*999 FILLER_0_31_113
*1000 FILLER_0_31_125
*1001 FILLER_0_31_137
*1002 FILLER_0_31_149
*1003 FILLER_0_31_15
*1004 FILLER_0_31_161
*1005 FILLER_0_31_167
*1006 FILLER_0_31_169
*1007 FILLER_0_31_181
*1008 FILLER_0_31_189
*1009 FILLER_0_31_234
*1010 FILLER_0_31_242
*1011 FILLER_0_31_269
*1012 FILLER_0_31_27
*1013 FILLER_0_31_277
*1014 FILLER_0_31_281
*1015 FILLER_0_31_3
*1016 FILLER_0_31_325
*1017 FILLER_0_31_333
*1018 FILLER_0_31_39
*1019 FILLER_0_31_51
*1020 FILLER_0_31_55
*1021 FILLER_0_31_57
*1022 FILLER_0_31_69
*1023 FILLER_0_31_81
*1024 FILLER_0_31_93
*1025 FILLER_0_32_109
*1026 FILLER_0_32_121
*1027 FILLER_0_32_133
*1028 FILLER_0_32_139
*1029 FILLER_0_32_141
*1030 FILLER_0_32_15
*1031 FILLER_0_32_153
*1032 FILLER_0_32_165
*1033 FILLER_0_32_177
*1034 FILLER_0_32_189
*1035 FILLER_0_32_262
*1036 FILLER_0_32_27
*1037 FILLER_0_32_29
*1038 FILLER_0_32_299
*1039 FILLER_0_32_3
*1040 FILLER_0_32_329
*1041 FILLER_0_32_41
*1042 FILLER_0_32_53
*1043 FILLER_0_32_65
*1044 FILLER_0_32_77
*1045 FILLER_0_32_83
*1046 FILLER_0_32_85
*1047 FILLER_0_32_97
*1048 FILLER_0_33_105
*1049 FILLER_0_33_111
*1050 FILLER_0_33_113
*1051 FILLER_0_33_125
*1052 FILLER_0_33_137
*1053 FILLER_0_33_149
*1054 FILLER_0_33_15
*1055 FILLER_0_33_161
*1056 FILLER_0_33_167
*1057 FILLER_0_33_169
*1058 FILLER_0_33_181
*1059 FILLER_0_33_193
*1060 FILLER_0_33_219
*1061 FILLER_0_33_223
*1062 FILLER_0_33_233
*1063 FILLER_0_33_27
*1064 FILLER_0_33_281
*1065 FILLER_0_33_3
*1066 FILLER_0_33_330
*1067 FILLER_0_33_334
*1068 FILLER_0_33_39
*1069 FILLER_0_33_51
*1070 FILLER_0_33_55
*1071 FILLER_0_33_57
*1072 FILLER_0_33_69
*1073 FILLER_0_33_81
*1074 FILLER_0_33_93
*1075 FILLER_0_34_109
*1076 FILLER_0_34_121
*1077 FILLER_0_34_133
*1078 FILLER_0_34_139
*1079 FILLER_0_34_141
*1080 FILLER_0_34_15
*1081 FILLER_0_34_153
*1082 FILLER_0_34_165
*1083 FILLER_0_34_177
*1084 FILLER_0_34_189
*1085 FILLER_0_34_195
*1086 FILLER_0_34_197
*1087 FILLER_0_34_208
*1088 FILLER_0_34_237
*1089 FILLER_0_34_241
*1090 FILLER_0_34_245
*1091 FILLER_0_34_251
*1092 FILLER_0_34_256
*1093 FILLER_0_34_264
*1094 FILLER_0_34_27
*1095 FILLER_0_34_29
*1096 FILLER_0_34_3
*1097 FILLER_0_34_305
*1098 FILLER_0_34_330
*1099 FILLER_0_34_334
*1100 FILLER_0_34_41
*1101 FILLER_0_34_53
*1102 FILLER_0_34_65
*1103 FILLER_0_34_77
*1104 FILLER_0_34_83
*1105 FILLER_0_34_85
*1106 FILLER_0_34_97
*1107 FILLER_0_35_105
*1108 FILLER_0_35_111
*1109 FILLER_0_35_113
*1110 FILLER_0_35_125
*1111 FILLER_0_35_137
*1112 FILLER_0_35_149
*1113 FILLER_0_35_15
*1114 FILLER_0_35_161
*1115 FILLER_0_35_167
*1116 FILLER_0_35_169
*1117 FILLER_0_35_181
*1118 FILLER_0_35_193
*1119 FILLER_0_35_225
*1120 FILLER_0_35_249
*1121 FILLER_0_35_266
*1122 FILLER_0_35_27
*1123 FILLER_0_35_278
*1124 FILLER_0_35_3
*1125 FILLER_0_35_325
*1126 FILLER_0_35_333
*1127 FILLER_0_35_39
*1128 FILLER_0_35_51
*1129 FILLER_0_35_55
*1130 FILLER_0_35_57
*1131 FILLER_0_35_69
*1132 FILLER_0_35_81
*1133 FILLER_0_35_93
*1134 FILLER_0_36_109
*1135 FILLER_0_36_121
*1136 FILLER_0_36_133
*1137 FILLER_0_36_139
*1138 FILLER_0_36_141
*1139 FILLER_0_36_15
*1140 FILLER_0_36_153
*1141 FILLER_0_36_165
*1142 FILLER_0_36_177
*1143 FILLER_0_36_189
*1144 FILLER_0_36_195
*1145 FILLER_0_36_249
*1146 FILLER_0_36_261
*1147 FILLER_0_36_27
*1148 FILLER_0_36_29
*1149 FILLER_0_36_299
*1150 FILLER_0_36_3
*1151 FILLER_0_36_329
*1152 FILLER_0_36_41
*1153 FILLER_0_36_53
*1154 FILLER_0_36_65
*1155 FILLER_0_36_77
*1156 FILLER_0_36_83
*1157 FILLER_0_36_85
*1158 FILLER_0_36_97
*1159 FILLER_0_37_105
*1160 FILLER_0_37_111
*1161 FILLER_0_37_113
*1162 FILLER_0_37_125
*1163 FILLER_0_37_137
*1164 FILLER_0_37_149
*1165 FILLER_0_37_15
*1166 FILLER_0_37_161
*1167 FILLER_0_37_167
*1168 FILLER_0_37_169
*1169 FILLER_0_37_181
*1170 FILLER_0_37_193
*1171 FILLER_0_37_212
*1172 FILLER_0_37_225
*1173 FILLER_0_37_27
*1174 FILLER_0_37_274
*1175 FILLER_0_37_3
*1176 FILLER_0_37_332
*1177 FILLER_0_37_39
*1178 FILLER_0_37_51
*1179 FILLER_0_37_55
*1180 FILLER_0_37_57
*1181 FILLER_0_37_69
*1182 FILLER_0_37_81
*1183 FILLER_0_37_93
*1184 FILLER_0_38_10
*1185 FILLER_0_38_102
*1186 FILLER_0_38_106
*1187 FILLER_0_38_110
*1188 FILLER_0_38_113
*1189 FILLER_0_38_118
*1190 FILLER_0_38_122
*1191 FILLER_0_38_126
*1192 FILLER_0_38_130
*1193 FILLER_0_38_134
*1194 FILLER_0_38_14
*1195 FILLER_0_38_144
*1196 FILLER_0_38_150
*1197 FILLER_0_38_154
*1198 FILLER_0_38_158
*1199 FILLER_0_38_162
*1200 FILLER_0_38_166
*1201 FILLER_0_38_169
*1202 FILLER_0_38_174
*1203 FILLER_0_38_178
*1204 FILLER_0_38_18
*1205 FILLER_0_38_182
*1206 FILLER_0_38_194
*1207 FILLER_0_38_197
*1208 FILLER_0_38_209
*1209 FILLER_0_38_219
*1210 FILLER_0_38_22
*1211 FILLER_0_38_223
*1212 FILLER_0_38_225
*1213 FILLER_0_38_237
*1214 FILLER_0_38_242
*1215 FILLER_0_38_250
*1216 FILLER_0_38_267
*1217 FILLER_0_38_271
*1218 FILLER_0_38_281
*1219 FILLER_0_38_294
*1220 FILLER_0_38_303
*1221 FILLER_0_38_309
*1222 FILLER_0_38_319
*1223 FILLER_0_38_32
*1224 FILLER_0_38_330
*1225 FILLER_0_38_334
*1226 FILLER_0_38_38
*1227 FILLER_0_38_42
*1228 FILLER_0_38_46
*1229 FILLER_0_38_50
*1230 FILLER_0_38_54
*1231 FILLER_0_38_57
*1232 FILLER_0_38_6
*1233 FILLER_0_38_62
*1234 FILLER_0_38_66
*1235 FILLER_0_38_70
*1236 FILLER_0_38_74
*1237 FILLER_0_38_78
*1238 FILLER_0_38_88
*1239 FILLER_0_38_94
*1240 FILLER_0_38_98
*1241 FILLER_0_3_105
*1242 FILLER_0_3_111
*1243 FILLER_0_3_113
*1244 FILLER_0_3_125
*1245 FILLER_0_3_137
*1246 FILLER_0_3_149
*1247 FILLER_0_3_15
*1248 FILLER_0_3_161
*1249 FILLER_0_3_167
*1250 FILLER_0_3_169
*1251 FILLER_0_3_181
*1252 FILLER_0_3_193
*1253 FILLER_0_3_205
*1254 FILLER_0_3_217
*1255 FILLER_0_3_223
*1256 FILLER_0_3_225
*1257 FILLER_0_3_237
*1258 FILLER_0_3_249
*1259 FILLER_0_3_261
*1260 FILLER_0_3_27
*1261 FILLER_0_3_273
*1262 FILLER_0_3_279
*1263 FILLER_0_3_281
*1264 FILLER_0_3_293
*1265 FILLER_0_3_3
*1266 FILLER_0_3_305
*1267 FILLER_0_3_317
*1268 FILLER_0_3_329
*1269 FILLER_0_3_39
*1270 FILLER_0_3_51
*1271 FILLER_0_3_55
*1272 FILLER_0_3_57
*1273 FILLER_0_3_69
*1274 FILLER_0_3_81
*1275 FILLER_0_3_93
*1276 FILLER_0_4_109
*1277 FILLER_0_4_121
*1278 FILLER_0_4_133
*1279 FILLER_0_4_139
*1280 FILLER_0_4_141
*1281 FILLER_0_4_15
*1282 FILLER_0_4_153
*1283 FILLER_0_4_165
*1284 FILLER_0_4_177
*1285 FILLER_0_4_189
*1286 FILLER_0_4_195
*1287 FILLER_0_4_197
*1288 FILLER_0_4_209
*1289 FILLER_0_4_221
*1290 FILLER_0_4_233
*1291 FILLER_0_4_245
*1292 FILLER_0_4_251
*1293 FILLER_0_4_253
*1294 FILLER_0_4_265
*1295 FILLER_0_4_27
*1296 FILLER_0_4_277
*1297 FILLER_0_4_289
*1298 FILLER_0_4_29
*1299 FILLER_0_4_3
*1300 FILLER_0_4_301
*1301 FILLER_0_4_307
*1302 FILLER_0_4_309
*1303 FILLER_0_4_321
*1304 FILLER_0_4_333
*1305 FILLER_0_4_41
*1306 FILLER_0_4_53
*1307 FILLER_0_4_65
*1308 FILLER_0_4_77
*1309 FILLER_0_4_83
*1310 FILLER_0_4_85
*1311 FILLER_0_4_97
*1312 FILLER_0_5_105
*1313 FILLER_0_5_111
*1314 FILLER_0_5_113
*1315 FILLER_0_5_125
*1316 FILLER_0_5_137
*1317 FILLER_0_5_149
*1318 FILLER_0_5_15
*1319 FILLER_0_5_161
*1320 FILLER_0_5_167
*1321 FILLER_0_5_169
*1322 FILLER_0_5_181
*1323 FILLER_0_5_193
*1324 FILLER_0_5_205
*1325 FILLER_0_5_217
*1326 FILLER_0_5_223
*1327 FILLER_0_5_225
*1328 FILLER_0_5_237
*1329 FILLER_0_5_249
*1330 FILLER_0_5_261
*1331 FILLER_0_5_27
*1332 FILLER_0_5_273
*1333 FILLER_0_5_279
*1334 FILLER_0_5_281
*1335 FILLER_0_5_293
*1336 FILLER_0_5_3
*1337 FILLER_0_5_305
*1338 FILLER_0_5_317
*1339 FILLER_0_5_329
*1340 FILLER_0_5_39
*1341 FILLER_0_5_51
*1342 FILLER_0_5_55
*1343 FILLER_0_5_57
*1344 FILLER_0_5_69
*1345 FILLER_0_5_81
*1346 FILLER_0_5_93
*1347 FILLER_0_6_109
*1348 FILLER_0_6_121
*1349 FILLER_0_6_133
*1350 FILLER_0_6_139
*1351 FILLER_0_6_141
*1352 FILLER_0_6_15
*1353 FILLER_0_6_153
*1354 FILLER_0_6_165
*1355 FILLER_0_6_177
*1356 FILLER_0_6_189
*1357 FILLER_0_6_195
*1358 FILLER_0_6_197
*1359 FILLER_0_6_209
*1360 FILLER_0_6_221
*1361 FILLER_0_6_233
*1362 FILLER_0_6_245
*1363 FILLER_0_6_251
*1364 FILLER_0_6_253
*1365 FILLER_0_6_265
*1366 FILLER_0_6_27
*1367 FILLER_0_6_277
*1368 FILLER_0_6_289
*1369 FILLER_0_6_29
*1370 FILLER_0_6_3
*1371 FILLER_0_6_301
*1372 FILLER_0_6_307
*1373 FILLER_0_6_309
*1374 FILLER_0_6_321
*1375 FILLER_0_6_333
*1376 FILLER_0_6_41
*1377 FILLER_0_6_53
*1378 FILLER_0_6_65
*1379 FILLER_0_6_77
*1380 FILLER_0_6_83
*1381 FILLER_0_6_85
*1382 FILLER_0_6_97
*1383 FILLER_0_7_105
*1384 FILLER_0_7_111
*1385 FILLER_0_7_113
*1386 FILLER_0_7_125
*1387 FILLER_0_7_137
*1388 FILLER_0_7_149
*1389 FILLER_0_7_15
*1390 FILLER_0_7_161
*1391 FILLER_0_7_167
*1392 FILLER_0_7_169
*1393 FILLER_0_7_181
*1394 FILLER_0_7_193
*1395 FILLER_0_7_205
*1396 FILLER_0_7_217
*1397 FILLER_0_7_223
*1398 FILLER_0_7_225
*1399 FILLER_0_7_237
*1400 FILLER_0_7_249
*1401 FILLER_0_7_261
*1402 FILLER_0_7_27
*1403 FILLER_0_7_273
*1404 FILLER_0_7_279
*1405 FILLER_0_7_281
*1406 FILLER_0_7_293
*1407 FILLER_0_7_3
*1408 FILLER_0_7_305
*1409 FILLER_0_7_317
*1410 FILLER_0_7_329
*1411 FILLER_0_7_39
*1412 FILLER_0_7_51
*1413 FILLER_0_7_55
*1414 FILLER_0_7_57
*1415 FILLER_0_7_69
*1416 FILLER_0_7_81
*1417 FILLER_0_7_93
*1418 FILLER_0_8_109
*1419 FILLER_0_8_121
*1420 FILLER_0_8_133
*1421 FILLER_0_8_139
*1422 FILLER_0_8_141
*1423 FILLER_0_8_15
*1424 FILLER_0_8_153
*1425 FILLER_0_8_165
*1426 FILLER_0_8_177
*1427 FILLER_0_8_189
*1428 FILLER_0_8_195
*1429 FILLER_0_8_197
*1430 FILLER_0_8_209
*1431 FILLER_0_8_221
*1432 FILLER_0_8_233
*1433 FILLER_0_8_245
*1434 FILLER_0_8_251
*1435 FILLER_0_8_253
*1436 FILLER_0_8_265
*1437 FILLER_0_8_27
*1438 FILLER_0_8_277
*1439 FILLER_0_8_289
*1440 FILLER_0_8_29
*1441 FILLER_0_8_3
*1442 FILLER_0_8_301
*1443 FILLER_0_8_307
*1444 FILLER_0_8_309
*1445 FILLER_0_8_321
*1446 FILLER_0_8_333
*1447 FILLER_0_8_41
*1448 FILLER_0_8_53
*1449 FILLER_0_8_65
*1450 FILLER_0_8_77
*1451 FILLER_0_8_83
*1452 FILLER_0_8_85
*1453 FILLER_0_8_97
*1454 FILLER_0_9_105
*1455 FILLER_0_9_111
*1456 FILLER_0_9_113
*1457 FILLER_0_9_125
*1458 FILLER_0_9_137
*1459 FILLER_0_9_149
*1460 FILLER_0_9_15
*1461 FILLER_0_9_161