*SPEF "ieee 1481-1999"
*DESIGN "tt_um_i_tree_batzolislefteris"
*DATE "14:21:28 Wednesday April 17, 2024"
*VENDOR "The OpenROAD Project"
*PROGRAM "OpenROAD"
*VERSION "0889970d1790a2617e69f253221b8bd7626e51dc"
*DESIGN_FLOW "NAME_SCOPE LOCAL" "PIN_CAP NONE"
*DIVIDER /
*DELIMITER :
*BUS_DELIMITER []
*T_UNIT 1 NS
*C_UNIT 1 PF
*R_UNIT 1 OHM
*L_UNIT 1 HENRY

*NAME_MAP
*3 clk
*4 ena
*5 rst_n
*6 ui_in[0]
*7 ui_in[1]
*8 ui_in[2]
*9 ui_in[3]
*10 ui_in[4]
*11 ui_in[5]
*12 ui_in[6]
*13 ui_in[7]
*14 uio_in[0]
*15 uio_in[1]
*16 uio_in[2]
*17 uio_in[3]
*18 uio_in[4]
*19 uio_in[5]
*20 uio_in[6]
*21 uio_in[7]
*22 net7
*23 net8
*24 net9
*25 net10
*26 net11
*27 net12
*28 net13
*29 net14
*30 net15
*31 net16
*32 net17
*33 net18
*34 net19
*35 net20
*36 net21
*37 net22
*38 uo_out[0]
*39 net23
*40 net24
*41 net25
*42 net26
*43 net27
*44 net28
*45 net29
*46 _000_
*47 _001_
*48 _002_
*49 _003_
*50 _004_
*51 _005_
*52 _006_
*53 _007_
*54 _008_
*55 _009_
*56 _010_
*57 _011_
*58 _012_
*59 _013_
*60 _014_
*61 _015_
*62 _016_
*63 _017_
*64 _018_
*65 _019_
*66 _020_
*67 _021_
*68 _022_
*69 _023_
*70 _024_
*71 _025_
*72 _026_
*73 _027_
*74 _028_
*75 _029_
*76 _030_
*77 _031_
*78 _032_
*79 _033_
*80 _034_
*81 _035_
*82 _036_
*83 _037_
*84 _038_
*85 _039_
*86 _040_
*87 _041_
*88 _042_
*89 _043_
*90 _044_
*91 _045_
*92 _046_
*93 _047_
*94 _048_
*95 _049_
*96 _050_
*97 _051_
*98 _052_
*99 _053_
*100 _054_
*101 _055_
*102 _056_
*103 _057_
*104 _058_
*105 _059_
*106 _060_
*107 _061_
*108 _062_
*109 _063_
*110 _064_
*111 _065_
*112 _066_
*113 _067_
*114 _068_
*115 _069_
*116 _070_
*117 _071_
*118 _072_
*119 _073_
*120 _074_
*121 _075_
*122 _076_
*123 _077_
*124 _078_
*125 _079_
*126 _080_
*127 _081_
*128 _082_
*129 _083_
*130 _084_
*131 _085_
*132 _086_
*133 _087_
*134 _088_
*135 _089_
*136 _090_
*137 _091_
*138 _092_
*139 _093_
*140 _094_
*141 _095_
*142 _096_
*143 _097_
*144 _098_
*145 _099_
*146 _100_
*147 _101_
*148 _102_
*149 _103_
*150 _104_
*151 _105_
*152 _106_
*153 _107_
*154 _108_
*155 _109_
*156 _110_
*157 _111_
*158 _112_
*159 _113_
*160 _114_
*161 _115_
*162 _116_
*163 _117_
*164 _118_
*165 _119_
*166 _120_
*167 _121_
*168 _122_
*169 _123_
*170 _124_
*171 _125_
*172 _126_
*173 _127_
*174 _128_
*175 _129_
*176 _130_
*177 _131_
*178 _132_
*179 _133_
*180 _134_
*181 _135_
*182 _136_
*183 _137_
*184 _138_
*185 _139_
*186 _140_
*187 _141_
*188 _142_
*189 _143_
*190 _144_
*191 _145_
*192 clknet_0_clk
*193 clknet_2_0__leaf_clk
*194 clknet_2_1__leaf_clk
*195 clknet_2_2__leaf_clk
*196 clknet_2_3__leaf_clk
*197 i_tree_inst\.anomaly_detected
*198 i_tree_inst\.data_from_buffer\[0\]
*199 i_tree_inst\.data_from_buffer\[1\]
*200 i_tree_inst\.data_from_buffer\[2\]
*201 i_tree_inst\.data_from_buffer\[3\]
*202 i_tree_inst\.data_from_buffer\[4\]
*203 i_tree_inst\.data_from_buffer\[5\]
*204 i_tree_inst\.data_from_buffer\[6\]
*205 i_tree_inst\.data_from_buffer\[7\]
*206 i_tree_inst\.data_processed
*207 i_tree_inst\.data_ready
*208 i_tree_inst\.input_buffer_inst\.bit_count\[0\]
*209 i_tree_inst\.input_buffer_inst\.bit_count\[1\]
*210 i_tree_inst\.input_buffer_inst\.bit_count\[2\]
*211 i_tree_inst\.input_buffer_inst\.bit_count\[3\]
*212 i_tree_inst\.input_buffer_inst\.bit_count\[4\]
*213 i_tree_inst\.input_buffer_inst\.bit_count\[5\]
*214 i_tree_inst\.input_buffer_inst\.bit_count\[6\]
*215 i_tree_inst\.input_buffer_inst\.bit_count\[7\]
*216 i_tree_inst\.input_buffer_inst\.buffer\[0\]
*217 i_tree_inst\.input_buffer_inst\.buffer\[1\]
*218 i_tree_inst\.input_buffer_inst\.buffer\[2\]
*219 i_tree_inst\.input_buffer_inst\.buffer\[3\]
*220 i_tree_inst\.input_buffer_inst\.buffer\[4\]
*221 i_tree_inst\.input_buffer_inst\.buffer\[5\]
*222 i_tree_inst\.input_buffer_inst\.buffer\[6\]
*223 i_tree_inst\.input_buffer_inst\.buffer\[7\]
*224 i_tree_inst\.input_buffer_inst\.data_temp\[0\]
*225 i_tree_inst\.input_buffer_inst\.data_temp\[1\]
*226 i_tree_inst\.input_buffer_inst\.data_temp\[2\]
*227 i_tree_inst\.input_buffer_inst\.data_temp\[3\]
*228 i_tree_inst\.input_buffer_inst\.data_temp\[4\]
*229 i_tree_inst\.input_buffer_inst\.data_temp\[5\]
*230 i_tree_inst\.input_buffer_inst\.data_temp\[6\]
*231 i_tree_inst\.input_buffer_inst\.data_temp\[7\]
*232 i_tree_inst\.isolation_tree_state_machine_inst\.anomaly_pattern\[0\]
*233 i_tree_inst\.isolation_tree_state_machine_inst\.anomaly_pattern\[1\]
*234 i_tree_inst\.isolation_tree_state_machine_inst\.anomaly_pattern\[2\]
*235 i_tree_inst\.isolation_tree_state_machine_inst\.anomaly_pattern\[3\]
*236 i_tree_inst\.isolation_tree_state_machine_inst\.anomaly_pattern\[4\]
*237 i_tree_inst\.isolation_tree_state_machine_inst\.anomaly_pattern\[5\]
*238 i_tree_inst\.isolation_tree_state_machine_inst\.anomaly_pattern\[6\]
*239 i_tree_inst\.isolation_tree_state_machine_inst\.anomaly_pattern\[7\]
*240 i_tree_inst\.isolation_tree_state_machine_inst\.current_state\[0\]
*241 i_tree_inst\.isolation_tree_state_machine_inst\.current_state\[1\]
*242 i_tree_inst\.isolation_tree_state_machine_inst\.next_state\[0\]
*243 i_tree_inst\.isolation_tree_state_machine_inst\.next_state\[1\]
*244 net1
*245 net2
*246 net3
*247 net30
*248 net31
*249 net32
*250 net33
*251 net34
*252 net35
*253 net36
*254 net37
*255 net38
*256 net39
*257 net4
*258 net40
*259 net41
*260 net42
*261 net43
*262 net44
*263 net45
*264 net46
*265 net47
*266 net48
*267 net49
*268 net5
*269 net50
*270 net51
*271 net52
*272 net53
*273 net54
*274 net55
*275 net56
*276 net57
*277 net58
*278 net59
*279 net6
*280 net60
*281 net61
*282 net62
*283 net63
*284 net64
*285 net65
*286 net66
*287 net67
*288 FILLER_0_0_109
*289 FILLER_0_0_113
*290 FILLER_0_0_125
*291 FILLER_0_0_137
*292 FILLER_0_0_141
*293 FILLER_0_0_15
*294 FILLER_0_0_153
*295 FILLER_0_0_165
*296 FILLER_0_0_169
*297 FILLER_0_0_181
*298 FILLER_0_0_193
*299 FILLER_0_0_197
*300 FILLER_0_0_209
*301 FILLER_0_0_221
*302 FILLER_0_0_225
*303 FILLER_0_0_237
*304 FILLER_0_0_249
*305 FILLER_0_0_253
*306 FILLER_0_0_265
*307 FILLER_0_0_27
*308 FILLER_0_0_277
*309 FILLER_0_0_281
*310 FILLER_0_0_29
*311 FILLER_0_0_293
*312 FILLER_0_0_3
*313 FILLER_0_0_305
*314 FILLER_0_0_309
*315 FILLER_0_0_321
*316 FILLER_0_0_333
*317 FILLER_0_0_41
*318 FILLER_0_0_53
*319 FILLER_0_0_57
*320 FILLER_0_0_69
*321 FILLER_0_0_81
*322 FILLER_0_0_85
*323 FILLER_0_0_97
*324 FILLER_0_10_109
*325 FILLER_0_10_121
*326 FILLER_0_10_133
*327 FILLER_0_10_139
*328 FILLER_0_10_141
*329 FILLER_0_10_15
*330 FILLER_0_10_153
*331 FILLER_0_10_165
*332 FILLER_0_10_177
*333 FILLER_0_10_189
*334 FILLER_0_10_195
*335 FILLER_0_10_197
*336 FILLER_0_10_209
*337 FILLER_0_10_221
*338 FILLER_0_10_233
*339 FILLER_0_10_245
*340 FILLER_0_10_251
*341 FILLER_0_10_253
*342 FILLER_0_10_265
*343 FILLER_0_10_27
*344 FILLER_0_10_277
*345 FILLER_0_10_289
*346 FILLER_0_10_29
*347 FILLER_0_10_3
*348 FILLER_0_10_301
*349 FILLER_0_10_307
*350 FILLER_0_10_309
*351 FILLER_0_10_321
*352 FILLER_0_10_333
*353 FILLER_0_10_41
*354 FILLER_0_10_53
*355 FILLER_0_10_65
*356 FILLER_0_10_77
*357 FILLER_0_10_83
*358 FILLER_0_10_85
*359 FILLER_0_10_97
*360 FILLER_0_11_105
*361 FILLER_0_11_111
*362 FILLER_0_11_113
*363 FILLER_0_11_125
*364 FILLER_0_11_137
*365 FILLER_0_11_149
*366 FILLER_0_11_15
*367 FILLER_0_11_161
*368 FILLER_0_11_167
*369 FILLER_0_11_169
*370 FILLER_0_11_181
*371 FILLER_0_11_193
*372 FILLER_0_11_205
*373 FILLER_0_11_217
*374 FILLER_0_11_223
*375 FILLER_0_11_225
*376 FILLER_0_11_237
*377 FILLER_0_11_249
*378 FILLER_0_11_261
*379 FILLER_0_11_27
*380 FILLER_0_11_273
*381 FILLER_0_11_279
*382 FILLER_0_11_281
*383 FILLER_0_11_293
*384 FILLER_0_11_3
*385 FILLER_0_11_305
*386 FILLER_0_11_317
*387 FILLER_0_11_329
*388 FILLER_0_11_39
*389 FILLER_0_11_51
*390 FILLER_0_11_55
*391 FILLER_0_11_57
*392 FILLER_0_11_69
*393 FILLER_0_11_81
*394 FILLER_0_11_93
*395 FILLER_0_12_109
*396 FILLER_0_12_121
*397 FILLER_0_12_133
*398 FILLER_0_12_139
*399 FILLER_0_12_141
*400 FILLER_0_12_15
*401 FILLER_0_12_153
*402 FILLER_0_12_165
*403 FILLER_0_12_177
*404 FILLER_0_12_189
*405 FILLER_0_12_195
*406 FILLER_0_12_197
*407 FILLER_0_12_209
*408 FILLER_0_12_221
*409 FILLER_0_12_233
*410 FILLER_0_12_245
*411 FILLER_0_12_251
*412 FILLER_0_12_253
*413 FILLER_0_12_265
*414 FILLER_0_12_27
*415 FILLER_0_12_277
*416 FILLER_0_12_289
*417 FILLER_0_12_29
*418 FILLER_0_12_3
*419 FILLER_0_12_301
*420 FILLER_0_12_307
*421 FILLER_0_12_309
*422 FILLER_0_12_321
*423 FILLER_0_12_333
*424 FILLER_0_12_41
*425 FILLER_0_12_53
*426 FILLER_0_12_65
*427 FILLER_0_12_77
*428 FILLER_0_12_83
*429 FILLER_0_12_85
*430 FILLER_0_12_97
*431 FILLER_0_13_105
*432 FILLER_0_13_111
*433 FILLER_0_13_113
*434 FILLER_0_13_125
*435 FILLER_0_13_137
*436 FILLER_0_13_149
*437 FILLER_0_13_15
*438 FILLER_0_13_161
*439 FILLER_0_13_167
*440 FILLER_0_13_169
*441 FILLER_0_13_181
*442 FILLER_0_13_193
*443 FILLER_0_13_205
*444 FILLER_0_13_217
*445 FILLER_0_13_223
*446 FILLER_0_13_225
*447 FILLER_0_13_237
*448 FILLER_0_13_249
*449 FILLER_0_13_261
*450 FILLER_0_13_27
*451 FILLER_0_13_273
*452 FILLER_0_13_279
*453 FILLER_0_13_281
*454 FILLER_0_13_293
*455 FILLER_0_13_3
*456 FILLER_0_13_305
*457 FILLER_0_13_317
*458 FILLER_0_13_329
*459 FILLER_0_13_39
*460 FILLER_0_13_51
*461 FILLER_0_13_55
*462 FILLER_0_13_57
*463 FILLER_0_13_69
*464 FILLER_0_13_81
*465 FILLER_0_13_93
*466 FILLER_0_14_109
*467 FILLER_0_14_121
*468 FILLER_0_14_133
*469 FILLER_0_14_139
*470 FILLER_0_14_141
*471 FILLER_0_14_15
*472 FILLER_0_14_153
*473 FILLER_0_14_165
*474 FILLER_0_14_177
*475 FILLER_0_14_189
*476 FILLER_0_14_195
*477 FILLER_0_14_197
*478 FILLER_0_14_209
*479 FILLER_0_14_221
*480 FILLER_0_14_233
*481 FILLER_0_14_245
*482 FILLER_0_14_251
*483 FILLER_0_14_253
*484 FILLER_0_14_265
*485 FILLER_0_14_27
*486 FILLER_0_14_277
*487 FILLER_0_14_289
*488 FILLER_0_14_29
*489 FILLER_0_14_3
*490 FILLER_0_14_301
*491 FILLER_0_14_307
*492 FILLER_0_14_309
*493 FILLER_0_14_321
*494 FILLER_0_14_333
*495 FILLER_0_14_41
*496 FILLER_0_14_53
*497 FILLER_0_14_65
*498 FILLER_0_14_77
*499 FILLER_0_14_83
*500 FILLER_0_14_85
*501 FILLER_0_14_97
*502 FILLER_0_15_105
*503 FILLER_0_15_111
*504 FILLER_0_15_113
*505 FILLER_0_15_125
*506 FILLER_0_15_137
*507 FILLER_0_15_149
*508 FILLER_0_15_15
*509 FILLER_0_15_161
*510 FILLER_0_15_167
*511 FILLER_0_15_169
*512 FILLER_0_15_181
*513 FILLER_0_15_193
*514 FILLER_0_15_205
*515 FILLER_0_15_217
*516 FILLER_0_15_223
*517 FILLER_0_15_225
*518 FILLER_0_15_237
*519 FILLER_0_15_249
*520 FILLER_0_15_261
*521 FILLER_0_15_27
*522 FILLER_0_15_273
*523 FILLER_0_15_279
*524 FILLER_0_15_281
*525 FILLER_0_15_293
*526 FILLER_0_15_3
*527 FILLER_0_15_305
*528 FILLER_0_15_317
*529 FILLER_0_15_329
*530 FILLER_0_15_39
*531 FILLER_0_15_51
*532 FILLER_0_15_55
*533 FILLER_0_15_57
*534 FILLER_0_15_69
*535 FILLER_0_15_81
*536 FILLER_0_15_93
*537 FILLER_0_16_109
*538 FILLER_0_16_121
*539 FILLER_0_16_133
*540 FILLER_0_16_139
*541 FILLER_0_16_141
*542 FILLER_0_16_15
*543 FILLER_0_16_153
*544 FILLER_0_16_165
*545 FILLER_0_16_177
*546 FILLER_0_16_189
*547 FILLER_0_16_195
*548 FILLER_0_16_197
*549 FILLER_0_16_209
*550 FILLER_0_16_221
*551 FILLER_0_16_233
*552 FILLER_0_16_245
*553 FILLER_0_16_251
*554 FILLER_0_16_253
*555 FILLER_0_16_265
*556 FILLER_0_16_27
*557 FILLER_0_16_277
*558 FILLER_0_16_289
*559 FILLER_0_16_29
*560 FILLER_0_16_3
*561 FILLER_0_16_301
*562 FILLER_0_16_307
*563 FILLER_0_16_309
*564 FILLER_0_16_321
*565 FILLER_0_16_333
*566 FILLER_0_16_41
*567 FILLER_0_16_53
*568 FILLER_0_16_65
*569 FILLER_0_16_77
*570 FILLER_0_16_83
*571 FILLER_0_16_85
*572 FILLER_0_16_97
*573 FILLER_0_17_105
*574 FILLER_0_17_111
*575 FILLER_0_17_113
*576 FILLER_0_17_125
*577 FILLER_0_17_137
*578 FILLER_0_17_149
*579 FILLER_0_17_15
*580 FILLER_0_17_161
*581 FILLER_0_17_167
*582 FILLER_0_17_169
*583 FILLER_0_17_181
*584 FILLER_0_17_193
*585 FILLER_0_17_205
*586 FILLER_0_17_217
*587 FILLER_0_17_223
*588 FILLER_0_17_225
*589 FILLER_0_17_237
*590 FILLER_0_17_249
*591 FILLER_0_17_261
*592 FILLER_0_17_27
*593 FILLER_0_17_273
*594 FILLER_0_17_279
*595 FILLER_0_17_281
*596 FILLER_0_17_293
*597 FILLER_0_17_3
*598 FILLER_0_17_305
*599 FILLER_0_17_317
*600 FILLER_0_17_329
*601 FILLER_0_17_39
*602 FILLER_0_17_51
*603 FILLER_0_17_55
*604 FILLER_0_17_57
*605 FILLER_0_17_69
*606 FILLER_0_17_81
*607 FILLER_0_17_93
*608 FILLER_0_18_109
*609 FILLER_0_18_121
*610 FILLER_0_18_133
*611 FILLER_0_18_139
*612 FILLER_0_18_141
*613 FILLER_0_18_15
*614 FILLER_0_18_153
*615 FILLER_0_18_165
*616 FILLER_0_18_177
*617 FILLER_0_18_189
*618 FILLER_0_18_195
*619 FILLER_0_18_197
*620 FILLER_0_18_209
*621 FILLER_0_18_221
*622 FILLER_0_18_233
*623 FILLER_0_18_245
*624 FILLER_0_18_251
*625 FILLER_0_18_253
*626 FILLER_0_18_265
*627 FILLER_0_18_27
*628 FILLER_0_18_277
*629 FILLER_0_18_289
*630 FILLER_0_18_29
*631 FILLER_0_18_3
*632 FILLER_0_18_301
*633 FILLER_0_18_307
*634 FILLER_0_18_309
*635 FILLER_0_18_321
*636 FILLER_0_18_333
*637 FILLER_0_18_41
*638 FILLER_0_18_53
*639 FILLER_0_18_65
*640 FILLER_0_18_77
*641 FILLER_0_18_83
*642 FILLER_0_18_85
*643 FILLER_0_18_97
*644 FILLER_0_19_105
*645 FILLER_0_19_111
*646 FILLER_0_19_113
*647 FILLER_0_19_125
*648 FILLER_0_19_137
*649 FILLER_0_19_149
*650 FILLER_0_19_15
*651 FILLER_0_19_161
*652 FILLER_0_19_167
*653 FILLER_0_19_169
*654 FILLER_0_19_181
*655 FILLER_0_19_193
*656 FILLER_0_19_205
*657 FILLER_0_19_217
*658 FILLER_0_19_223
*659 FILLER_0_19_225
*660 FILLER_0_19_237
*661 FILLER_0_19_249
*662 FILLER_0_19_261
*663 FILLER_0_19_27
*664 FILLER_0_19_273
*665 FILLER_0_19_279
*666 FILLER_0_19_281
*667 FILLER_0_19_293
*668 FILLER_0_19_3
*669 FILLER_0_19_305
*670 FILLER_0_19_317
*671 FILLER_0_19_329
*672 FILLER_0_19_39
*673 FILLER_0_19_51
*674 FILLER_0_19_55
*675 FILLER_0_19_57
*676 FILLER_0_19_69
*677 FILLER_0_19_81
*678 FILLER_0_19_93
*679 FILLER_0_1_105
*680 FILLER_0_1_111
*681 FILLER_0_1_113
*682 FILLER_0_1_125
*683 FILLER_0_1_137
*684 FILLER_0_1_149
*685 FILLER_0_1_15
*686 FILLER_0_1_161
*687 FILLER_0_1_167
*688 FILLER_0_1_169
*689 FILLER_0_1_181
*690 FILLER_0_1_193
*691 FILLER_0_1_205
*692 FILLER_0_1_217
*693 FILLER_0_1_223
*694 FILLER_0_1_225
*695 FILLER_0_1_237
*696 FILLER_0_1_249
*697 FILLER_0_1_261
*698 FILLER_0_1_27
*699 FILLER_0_1_273
*700 FILLER_0_1_279
*701 FILLER_0_1_281
*702 FILLER_0_1_293
*703 FILLER_0_1_3
*704 FILLER_0_1_305
*705 FILLER_0_1_317
*706 FILLER_0_1_329
*707 FILLER_0_1_39
*708 FILLER_0_1_51
*709 FILLER_0_1_55
*710 FILLER_0_1_57
*711 FILLER_0_1_69
*712 FILLER_0_1_81
*713 FILLER_0_1_93
*714 FILLER_0_20_109
*715 FILLER_0_20_121
*716 FILLER_0_20_133
*717 FILLER_0_20_139
*718 FILLER_0_20_141
*719 FILLER_0_20_15
*720 FILLER_0_20_153
*721 FILLER_0_20_165
*722 FILLER_0_20_177
*723 FILLER_0_20_189
*724 FILLER_0_20_195
*725 FILLER_0_20_197
*726 FILLER_0_20_209
*727 FILLER_0_20_221
*728 FILLER_0_20_233
*729 FILLER_0_20_245
*730 FILLER_0_20_251
*731 FILLER_0_20_253
*732 FILLER_0_20_265
*733 FILLER_0_20_27
*734 FILLER_0_20_277
*735 FILLER_0_20_289
*736 FILLER_0_20_29
*737 FILLER_0_20_3
*738 FILLER_0_20_301
*739 FILLER_0_20_307
*740 FILLER_0_20_309
*741 FILLER_0_20_321
*742 FILLER_0_20_333
*743 FILLER_0_20_41
*744 FILLER_0_20_53
*745 FILLER_0_20_65
*746 FILLER_0_20_77
*747 FILLER_0_20_83
*748 FILLER_0_20_85
*749 FILLER_0_20_97
*750 FILLER_0_21_105
*751 FILLER_0_21_111
*752 FILLER_0_21_113
*753 FILLER_0_21_125
*754 FILLER_0_21_137
*755 FILLER_0_21_149
*756 FILLER_0_21_15
*757 FILLER_0_21_161
*758 FILLER_0_21_167
*759 FILLER_0_21_169
*760 FILLER_0_21_181
*761 FILLER_0_21_193
*762 FILLER_0_21_205
*763 FILLER_0_21_217
*764 FILLER_0_21_223
*765 FILLER_0_21_225
*766 FILLER_0_21_237
*767 FILLER_0_21_249
*768 FILLER_0_21_261
*769 FILLER_0_21_27
*770 FILLER_0_21_273
*771 FILLER_0_21_279
*772 FILLER_0_21_281
*773 FILLER_0_21_293
*774 FILLER_0_21_3
*775 FILLER_0_21_305
*776 FILLER_0_21_317
*777 FILLER_0_21_329
*778 FILLER_0_21_39
*779 FILLER_0_21_51
*780 FILLER_0_21_55
*781 FILLER_0_21_57
*782 FILLER_0_21_69
*783 FILLER_0_21_81
*784 FILLER_0_21_93
*785 FILLER_0_22_109
*786 FILLER_0_22_121
*787 FILLER_0_22_133
*788 FILLER_0_22_139
*789 FILLER_0_22_141
*790 FILLER_0_22_15
*791 FILLER_0_22_153
*792 FILLER_0_22_165
*793 FILLER_0_22_177
*794 FILLER_0_22_189
*795 FILLER_0_22_195
*796 FILLER_0_22_197
*797 FILLER_0_22_209
*798 FILLER_0_22_221
*799 FILLER_0_22_233
*800 FILLER_0_22_245
*801 FILLER_0_22_251
*802 FILLER_0_22_253
*803 FILLER_0_22_265
*804 FILLER_0_22_27
*805 FILLER_0_22_277
*806 FILLER_0_22_289
*807 FILLER_0_22_29
*808 FILLER_0_22_3
*809 FILLER_0_22_301
*810 FILLER_0_22_307
*811 FILLER_0_22_309
*812 FILLER_0_22_321
*813 FILLER_0_22_333
*814 FILLER_0_22_41
*815 FILLER_0_22_53
*816 FILLER_0_22_65
*817 FILLER_0_22_77
*818 FILLER_0_22_83
*819 FILLER_0_22_85
*820 FILLER_0_22_97
*821 FILLER_0_23_105
*822 FILLER_0_23_111
*823 FILLER_0_23_113
*824 FILLER_0_23_125
*825 FILLER_0_23_137
*826 FILLER_0_23_149
*827 FILLER_0_23_15
*828 FILLER_0_23_161
*829 FILLER_0_23_167
*830 FILLER_0_23_169
*831 FILLER_0_23_181
*832 FILLER_0_23_193
*833 FILLER_0_23_205
*834 FILLER_0_23_217
*835 FILLER_0_23_223
*836 FILLER_0_23_225
*837 FILLER_0_23_237
*838 FILLER_0_23_249
*839 FILLER_0_23_261
*840 FILLER_0_23_27
*841 FILLER_0_23_273
*842 FILLER_0_23_279
*843 FILLER_0_23_281
*844 FILLER_0_23_285
*845 FILLER_0_23_3
*846 FILLER_0_23_321
*847 FILLER_0_23_330
*848 FILLER_0_23_334
*849 FILLER_0_23_39
*850 FILLER_0_23_51
*851 FILLER_0_23_55
*852 FILLER_0_23_57
*853 FILLER_0_23_69
*854 FILLER_0_23_81
*855 FILLER_0_23_93
*856 FILLER_0_24_109
*857 FILLER_0_24_121
*858 FILLER_0_24_133
*859 FILLER_0_24_139
*860 FILLER_0_24_141
*861 FILLER_0_24_15
*862 FILLER_0_24_153
*863 FILLER_0_24_165
*864 FILLER_0_24_177
*865 FILLER_0_24_189
*866 FILLER_0_24_195
*867 FILLER_0_24_197
*868 FILLER_0_24_209
*869 FILLER_0_24_221
*870 FILLER_0_24_233
*871 FILLER_0_24_240
*872 FILLER_0_24_253
*873 FILLER_0_24_265
*874 FILLER_0_24_27
*875 FILLER_0_24_271
*876 FILLER_0_24_29
*877 FILLER_0_24_297
*878 FILLER_0_24_3
*879 FILLER_0_24_309
*880 FILLER_0_24_333
*881 FILLER_0_24_41
*882 FILLER_0_24_53
*883 FILLER_0_24_65
*884 FILLER_0_24_77
*885 FILLER_0_24_83
*886 FILLER_0_24_85
*887 FILLER_0_24_97
*888 FILLER_0_25_105
*889 FILLER_0_25_111
*890 FILLER_0_25_113
*891 FILLER_0_25_125
*892 FILLER_0_25_137
*893 FILLER_0_25_149
*894 FILLER_0_25_15
*895 FILLER_0_25_155
*896 FILLER_0_25_164
*897 FILLER_0_25_169
*898 FILLER_0_25_181
*899 FILLER_0_25_189
*900 FILLER_0_25_211
*901 FILLER_0_25_219
*902 FILLER_0_25_223
*903 FILLER_0_25_225
*904 FILLER_0_25_253
*905 FILLER_0_25_265
*906 FILLER_0_25_27
*907 FILLER_0_25_277
*908 FILLER_0_25_281
*909 FILLER_0_25_288
*910 FILLER_0_25_3
*911 FILLER_0_25_330
*912 FILLER_0_25_334
*913 FILLER_0_25_39
*914 FILLER_0_25_51
*915 FILLER_0_25_55
*916 FILLER_0_25_57
*917 FILLER_0_25_69
*918 FILLER_0_25_81
*919 FILLER_0_25_93
*920 FILLER_0_26_109
*921 FILLER_0_26_121
*922 FILLER_0_26_133
*923 FILLER_0_26_139
*924 FILLER_0_26_15
*925 FILLER_0_26_176
*926 FILLER_0_26_184
*927 FILLER_0_26_27
*928 FILLER_0_26_279
*929 FILLER_0_26_29
*930 FILLER_0_26_291
*931 FILLER_0_26_3
*932 FILLER_0_26_305
*933 FILLER_0_26_317
*934 FILLER_0_26_329
*935 FILLER_0_26_41
*936 FILLER_0_26_53
*937 FILLER_0_26_65
*938 FILLER_0_26_77
*939 FILLER_0_26_83
*940 FILLER_0_26_85
*941 FILLER_0_26_97
*942 FILLER_0_27_105
*943 FILLER_0_27_111
*944 FILLER_0_27_113
*945 FILLER_0_27_125
*946 FILLER_0_27_137
*947 FILLER_0_27_15
*948 FILLER_0_27_164
*949 FILLER_0_27_184
*950 FILLER_0_27_188
*951 FILLER_0_27_204
*952 FILLER_0_27_222
*953 FILLER_0_27_225
*954 FILLER_0_27_27
*955 FILLER_0_27_279
*956 FILLER_0_27_290
*957 FILLER_0_27_295
*958 FILLER_0_27_3
*959 FILLER_0_27_318
*960 FILLER_0_27_322
*961 FILLER_0_27_334
*962 FILLER_0_27_39
*963 FILLER_0_27_51
*964 FILLER_0_27_55
*965 FILLER_0_27_57
*966 FILLER_0_27_69
*967 FILLER_0_27_81
*968 FILLER_0_27_93
*969 FILLER_0_28_109
*970 FILLER_0_28_121
*971 FILLER_0_28_133
*972 FILLER_0_28_137
*973 FILLER_0_28_15
*974 FILLER_0_28_150
*975 FILLER_0_28_182
*976 FILLER_0_28_186
*977 FILLER_0_28_194
*978 FILLER_0_28_216
*979 FILLER_0_28_224
*980 FILLER_0_28_238
*981 FILLER_0_28_250
*982 FILLER_0_28_27
*983 FILLER_0_28_271
*984 FILLER_0_28_29
*985 FILLER_0_28_292
*986 FILLER_0_28_3
*987 FILLER_0_28_332
*988 FILLER_0_28_41
*989 FILLER_0_28_53
*990 FILLER_0_28_65
*991 FILLER_0_28_77
*992 FILLER_0_28_83
*993 FILLER_0_28_85
*994 FILLER_0_28_97
*995 FILLER_0_29_105
*996 FILLER_0_29_111
*997 FILLER_0_29_113
*998 FILLER_0_29_125
*999 FILLER_0_29_15
*1000 FILLER_0_29_156
*1001 FILLER_0_29_166
*1002 FILLER_0_29_234
*1003 FILLER_0_29_247
*1004 FILLER_0_29_27
*1005 FILLER_0_29_278
*1006 FILLER_0_29_3
*1007 FILLER_0_29_334
*1008 FILLER_0_29_39
*1009 FILLER_0_29_51
*1010 FILLER_0_29_55
*1011 FILLER_0_29_57
*1012 FILLER_0_29_69
*1013 FILLER_0_29_81
*1014 FILLER_0_29_93
*1015 FILLER_0_2_109
*1016 FILLER_0_2_121
*1017 FILLER_0_2_133
*1018 FILLER_0_2_139
*1019 FILLER_0_2_141
*1020 FILLER_0_2_15
*1021 FILLER_0_2_153
*1022 FILLER_0_2_165
*1023 FILLER_0_2_177
*1024 FILLER_0_2_189
*1025 FILLER_0_2_195
*1026 FILLER_0_2_197
*1027 FILLER_0_2_209
*1028 FILLER_0_2_221
*1029 FILLER_0_2_233
*1030 FILLER_0_2_245
*1031 FILLER_0_2_251
*1032 FILLER_0_2_253
*1033 FILLER_0_2_265
*1034 FILLER_0_2_27
*1035 FILLER_0_2_277
*1036 FILLER_0_2_289
*1037 FILLER_0_2_29
*1038 FILLER_0_2_3
*1039 FILLER_0_2_301
*1040 FILLER_0_2_307
*1041 FILLER_0_2_309
*1042 FILLER_0_2_321
*1043 FILLER_0_2_333
*1044 FILLER_0_2_41
*1045 FILLER_0_2_53
*1046 FILLER_0_2_65
*1047 FILLER_0_2_77
*1048 FILLER_0_2_83
*1049 FILLER_0_2_85
*1050 FILLER_0_2_97
*1051 FILLER_0_30_109
*1052 FILLER_0_30_121
*1053 FILLER_0_30_129
*1054 FILLER_0_30_141
*1055 FILLER_0_30_15
*1056 FILLER_0_30_156
*1057 FILLER_0_30_178
*1058 FILLER_0_30_184
*1059 FILLER_0_30_197
*1060 FILLER_0_30_211
*1061 FILLER_0_30_246
*1062 FILLER_0_30_27
*1063 FILLER_0_30_282
*1064 FILLER_0_30_29
*1065 FILLER_0_30_290
*1066 FILLER_0_30_3
*1067 FILLER_0_30_301
*1068 FILLER_0_30_334
*1069 FILLER_0_30_41
*1070 FILLER_0_30_53
*1071 FILLER_0_30_65
*1072 FILLER_0_30_77
*1073 FILLER_0_30_83
*1074 FILLER_0_30_85
*1075 FILLER_0_30_97
*1076 FILLER_0_31_105
*1077 FILLER_0_31_111
*1078 FILLER_0_31_113
*1079 FILLER_0_31_125
*1080 FILLER_0_31_15
*1081 FILLER_0_31_163
*1082 FILLER_0_31_178
*1083 FILLER_0_31_225
*1084 FILLER_0_31_229
*1085 FILLER_0_31_250
*1086 FILLER_0_31_27
*1087 FILLER_0_31_278
*1088 FILLER_0_31_284
*1089 FILLER_0_31_292
*1090 FILLER_0_31_3
*1091 FILLER_0_31_333
*1092 FILLER_0_31_39
*1093 FILLER_0_31_51
*1094 FILLER_0_31_55
*1095 FILLER_0_31_57
*1096 FILLER_0_31_69
*1097 FILLER_0_31_81
*1098 FILLER_0_31_93
*1099 FILLER_0_32_109
*1100 FILLER_0_32_121
*1101 FILLER_0_32_129
*1102 FILLER_0_32_15
*1103 FILLER_0_32_156
*1104 FILLER_0_32_165
*1105 FILLER_0_32_173
*1106 FILLER_0_32_197
*1107 FILLER_0_32_243
*1108 FILLER_0_32_253
*1109 FILLER_0_32_27
*1110 FILLER_0_32_277
*1111 FILLER_0_32_289
*1112 FILLER_0_32_29
*1113 FILLER_0_32_297
*1114 FILLER_0_32_3
*1115 FILLER_0_32_320
*1116 FILLER_0_32_334
*1117 FILLER_0_32_41
*1118 FILLER_0_32_53
*1119 FILLER_0_32_65
*1120 FILLER_0_32_77
*1121 FILLER_0_32_83
*1122 FILLER_0_32_85
*1123 FILLER_0_32_97
*1124 FILLER_0_33_105
*1125 FILLER_0_33_111
*1126 FILLER_0_33_113
*1127 FILLER_0_33_125
*1128 FILLER_0_33_15
*1129 FILLER_0_33_153
*1130 FILLER_0_33_165
*1131 FILLER_0_33_169
*1132 FILLER_0_33_217
*1133 FILLER_0_33_223
*1134 FILLER_0_33_225
*1135 FILLER_0_33_230
*1136 FILLER_0_33_236
*1137 FILLER_0_33_248
*1138 FILLER_0_33_27
*1139 FILLER_0_33_276
*1140 FILLER_0_33_3
*1141 FILLER_0_33_329
*1142 FILLER_0_33_39
*1143 FILLER_0_33_51
*1144 FILLER_0_33_55
*1145 FILLER_0_33_57
*1146 FILLER_0_33_69
*1147 FILLER_0_33_81
*1148 FILLER_0_33_93
*1149 FILLER_0_34_109
*1150 FILLER_0_34_121
*1151 FILLER_0_34_133
*1152 FILLER_0_34_138
*1153 FILLER_0_34_141
*1154 FILLER_0_34_146
*1155 FILLER_0_34_15
*1156 FILLER_0_34_153
*1157 FILLER_0_34_165
*1158 FILLER_0_34_183
*1159 FILLER_0_34_188
*1160 FILLER_0_34_197
*1161 FILLER_0_34_205
*1162 FILLER_0_34_209
*1163 FILLER_0_34_213
*1164 FILLER_0_34_217
*1165 FILLER_0_34_229
*1166 FILLER_0_34_241
*1167 FILLER_0_34_247
*1168 FILLER_0_34_251
*1169 FILLER_0_34_261
*1170 FILLER_0_34_27
*1171 FILLER_0_34_270
*1172 FILLER_0_34_282
*1173 FILLER_0_34_29
*1174 FILLER_0_34_290
*1175 FILLER_0_34_3
*1176 FILLER_0_34_332
*1177 FILLER_0_34_41
*1178 FILLER_0_34_53
*1179 FILLER_0_34_65
*1180 FILLER_0_34_77
*1181 FILLER_0_34_83
*1182 FILLER_0_34_85
*1183 FILLER_0_34_97
*1184 FILLER_0_35_105
*1185 FILLER_0_35_111
*1186 FILLER_0_35_113
*1187 FILLER_0_35_125
*1188 FILLER_0_35_15
*1189 FILLER_0_35_165
*1190 FILLER_0_35_189
*1191 FILLER_0_35_197
*1192 FILLER_0_35_206
*1193 FILLER_0_35_212
*1194 FILLER_0_35_222
*1195 FILLER_0_35_235
*1196 FILLER_0_35_265
*1197 FILLER_0_35_27
*1198 FILLER_0_35_3
*1199 FILLER_0_35_39
*1200 FILLER_0_35_51
*1201 FILLER_0_35_55
*1202 FILLER_0_35_57
*1203 FILLER_0_35_69
*1204 FILLER_0_35_81
*1205 FILLER_0_35_93
*1206 FILLER_0_36_109
*1207 FILLER_0_36_121
*1208 FILLER_0_36_133
*1209 FILLER_0_36_15
*1210 FILLER_0_36_170
*1211 FILLER_0_36_178
*1212 FILLER_0_36_184
*1213 FILLER_0_36_194
*1214 FILLER_0_36_224
*1215 FILLER_0_36_250
*1216 FILLER_0_36_261
*1217 FILLER_0_36_265
*1218 FILLER_0_36_27
*1219 FILLER_0_36_29
*1220 FILLER_0_36_290
*1221 FILLER_0_36_3
*1222 FILLER_0_36_41
*1223 FILLER_0_36_53
*1224 FILLER_0_36_65
*1225 FILLER_0_36_77
*1226 FILLER_0_36_83
*1227 FILLER_0_36_85
*1228 FILLER_0_36_97
*1229 FILLER_0_37_105
*1230 FILLER_0_37_111
*1231 FILLER_0_37_113
*1232 FILLER_0_37_125
*1233 FILLER_0_37_131
*1234 FILLER_0_37_15
*1235 FILLER_0_37_162
*1236 FILLER_0_37_169
*1237 FILLER_0_37_175
*1238 FILLER_0_37_231
*1239 FILLER_0_37_27
*1240 FILLER_0_37_284
*1241 FILLER_0_37_296
*1242 FILLER_0_37_3
*1243 FILLER_0_37_304
*1244 FILLER_0_37_329
*1245 FILLER_0_37_39
*1246 FILLER_0_37_51
*1247 FILLER_0_37_55
*1248 FILLER_0_37_57
*1249 FILLER_0_37_69
*1250 FILLER_0_37_81
*1251 FILLER_0_37_93
*1252 FILLER_0_38_10
*1253 FILLER_0_38_102
*1254 FILLER_0_38_106
*1255 FILLER_0_38_110
*1256 FILLER_0_38_113
*1257 FILLER_0_38_118
*1258 FILLER_0_38_122
*1259 FILLER_0_38_126
*1260 FILLER_0_38_130
*1261 FILLER_0_38_134
*1262 FILLER_0_38_14
*1263 FILLER_0_38_150
*1264 FILLER_0_38_154
*1265 FILLER_0_38_158
*1266 FILLER_0_38_162
*1267 FILLER_0_38_166
*1268 FILLER_0_38_169
*1269 FILLER_0_38_174
*1270 FILLER_0_38_178
*1271 FILLER_0_38_18
*1272 FILLER_0_38_182
*1273 FILLER_0_38_197
*1274 FILLER_0_38_209
*1275 FILLER_0_38_22
*1276 FILLER_0_38_221
*1277 FILLER_0_38_225
*1278 FILLER_0_38_237
*1279 FILLER_0_38_249
*1280 FILLER_0_38_253
*1281 FILLER_0_38_265
*1282 FILLER_0_38_277
*1283 FILLER_0_38_281
*1284 FILLER_0_38_293
*1285 FILLER_0_38_299
*1286 FILLER_0_38_309
*1287 FILLER_0_38_32
*1288 FILLER_0_38_325
*1289 FILLER_0_38_38
*1290 FILLER_0_38_42
*1291 FILLER_0_38_46
*1292 FILLER_0_38_50
*1293 FILLER_0_38_54
*1294 FILLER_0_38_57
*1295 FILLER_0_38_6
*1296 FILLER_0_38_62
*1297 FILLER_0_38_66
*1298 FILLER_0_38_70
*1299 FILLER_0_38_74
*1300 FILLER_0_38_78
*1301 FILLER_0_38_88
*1302 FILLER_0_38_94
*1303 FILLER_0_38_98
*1304 FILLER_0_3_105
*1305 FILLER_0_3_111
*1306 FILLER_0_3_113
*1307 FILLER_0_3_125
*1308 FILLER_0_3_137
*1309 FILLER_0_3_149
*1310 FILLER_0_3_15
*1311 FILLER_0_3_161
*1312 FILLER_0_3_167
*1313 FILLER_0_3_169
*1314 FILLER_0_3_181
*1315 FILLER_0_3_193
*1316 FILLER_0_3_205
*1317 FILLER_0_3_217
*1318 FILLER_0_3_223
*1319 FILLER_0_3_225
*1320 FILLER_0_3_237
*1321 FILLER_0_3_249
*1322 FILLER_0_3_261
*1323 FILLER_0_3_27
*1324 FILLER_0_3_273
*1325 FILLER_0_3_279
*1326 FILLER_0_3_281
*1327 FILLER_0_3_293
*1328 FILLER_0_3_3
*1329 FILLER_0_3_305
*1330 FILLER_0_3_317
*1331 FILLER_0_3_329
*1332 FILLER_0_3_39
*1333 FILLER_0_3_51
*1334 FILLER_0_3_55
*1335 FILLER_0_3_57
*1336 FILLER_0_3_69
*1337 FILLER_0_3_81
*1338 FILLER_0_3_93
*1339 FILLER_0_4_109
*1340 FILLER_0_4_121
*1341 FILLER_0_4_133
*1342 FILLER_0_4_139
*1343 FILLER_0_4_141
*1344 FILLER_0_4_15
*1345 FILLER_0_4_153
*1346 FILLER_0_4_165
*1347 FILLER_0_4_177
*1348 FILLER_0_4_189
*1349 FILLER_0_4_195
*1350 FILLER_0_4_197
*1351 FILLER_0_4_209
*1352 FILLER_0_4_221
*1353 FILLER_0_4_233
*1354 FILLER_0_4_245
*1355 FILLER_0_4_251
*1356 FILLER_0_4_253
*1357 FILLER_0_4_265
*1358 FILLER_0_4_27
*1359 FILLER_0_4_277
*1360 FILLER_0_4_289
*1361 FILLER_0_4_29
*1362 FILLER_0_4_3
*1363 FILLER_0_4_301
*1364 FILLER_0_4_307
*1365 FILLER_0_4_309
*1366 FILLER_0_4_321
*1367 FILLER_0_4_333
*1368 FILLER_0_4_41
*1369 FILLER_0_4_53
*1370 FILLER_0_4_65
*1371 FILLER_0_4_77
*1372 FILLER_0_4_83
*1373 FILLER_0_4_85
*1374 FILLER_0_4_97
*1375 FILLER_0_5_105
*1376 FILLER_0_5_111
*1377 FILLER_0_5_113
*1378 FILLER_0_5_125
*1379 FILLER_0_5_137
*1380 FILLER_0_5_149
*1381 FILLER_0_5_15
*1382 FILLER_0_5_161
*1383 FILLER_0_5_167
*1384 FILLER_0_5_169
*1385 FILLER_0_5_181
*1386 FILLER_0_5_193
*1387 FILLER_0_5_205
*1388 FILLER_0_5_217
*1389 FILLER_0_5_223
*1390 FILLER_0_5_225
*1391 FILLER_0_5_237
*1392 FILLER_0_5_249
*1393 FILLER_0_5_261
*1394 FILLER_0_5_27
*1395 FILLER_0_5_273
*1396 FILLER_0_5_279
*1397 FILLER_0_5_281
*1398 FILLER_0_5_293
*1399 FILLER_0_5_3
*1400 FILLER_0_5_305
*1401 FILLER_0_5_317
*1402 FILLER_0_5_329
*1403 FILLER_0_5_39
*1404 FILLER_0_5_51
*1405 FILLER_0_5_55
*1406 FILLER_0_5_57
*1407 FILLER_0_5_69
*1408 FILLER_0_5_81
*1409 FILLER_0_5_93
*1410 FILLER_0_6_109
*1411 FILLER_0_6_121
*1412 FILLER_0_6_133
*1413 FILLER_0_6_139
*1414 FILLER_0_6_141
*1415 FILLER_0_6_15
*1416 FILLER_0_6_153
*1417 FILLER_0_6_165
*1418 FILLER_0_6_177
*1419 FILLER_0_6_189
*1420 FILLER_0_6_195
*1421 FILLER_0_6_197
*1422 FILLER_0_6_209
*1423 FILLER_0_6_221
*1424 FILLER_0_6_233
*1425 FILLER_0_6_245
*1426 FILLER_0_6_251
*1427 FILLER_0_6_253
*1428 FILLER_0_6_265
*1429 FILLER_0_6_27
*1430 FILLER_0_6_277
*1431 FILLER_0_6_289
*1432 FILLER_0_6_29
*1433 FILLER_0_6_3
*1434 FILLER_0_6_301
*1435 FILLER_0_6_307
*1436 FILLER_0_6_309
*1437 FILLER_0_6_321
*1438 FILLER_0_6_333
*1439 FILLER_0_6_41
*1440 FILLER_0_6_53
*1441 FILLER_0_6_65
*1442 FILLER_0_6_77
*1443 FILLER_0_6_83
*1444 FILLER_0_6_85
*1445 FILLER_0_6_97
*1446 FILLER_0_7_105
*1447 FILLER_0_7_111
*1448 FILLER_0_7_113
*1449 FILLER_0_7_125
*1450 FILLER_0_7_137
*1451 FILLER_0_7_149
*1452 FILLER_0_7_15
*1453 FILLER_0_7_161
*1454 FILLER_0_7_167
*1455 FILLER_0_7_169
*1456 FILLER_0_7_181
*1457 FILLER_0_7_193
*1458 FILLER_0_7_205
*1459 FILLER_0_7_217
*1460 FILLER_0_7_223
*1461 FILLER_0_7_225
*1462 FILLER_0_7_237
*1463 FILLER_0_7_249
*1464 FILLER_0_7_261