*SPEF "ieee 1481-1999"
*DESIGN "tt_um_i_tree_batzolislefteris"
*DATE "07:39:52 Wednesday April 17, 2024"
*VENDOR "The OpenROAD Project"
*PROGRAM "OpenROAD"
*VERSION "0889970d1790a2617e69f253221b8bd7626e51dc"
*DESIGN_FLOW "NAME_SCOPE LOCAL" "PIN_CAP NONE"
*DIVIDER /
*DELIMITER :
*BUS_DELIMITER []
*T_UNIT 1 NS
*C_UNIT 1 PF
*R_UNIT 1 OHM
*L_UNIT 1 HENRY

*NAME_MAP
*3 clk
*4 ena
*5 rst_n
*6 ui_in[0]
*7 ui_in[1]
*8 ui_in[2]
*9 ui_in[3]
*10 ui_in[4]
*11 ui_in[5]
*12 ui_in[6]
*13 ui_in[7]
*14 uio_in[0]
*15 uio_in[1]
*16 uio_in[2]
*17 uio_in[3]
*18 uio_in[4]
*19 uio_in[5]
*20 uio_in[6]
*21 uio_in[7]
*22 net7
*23 net8
*24 net9
*25 net10
*26 net11
*27 net12
*28 net13
*29 net14
*30 net15
*31 net16
*32 net17
*33 net18
*34 net19
*35 net20
*36 net21
*37 net22
*38 uo_out[0]
*39 net23
*40 net24
*41 net25
*42 net26
*43 net27
*44 net28
*45 net29
*46 _000_
*47 _001_
*48 _002_
*49 _003_
*50 _004_
*51 _005_
*52 _006_
*53 _007_
*54 _008_
*55 _009_
*56 _010_
*57 _011_
*58 _012_
*59 _013_
*60 _014_
*61 _015_
*62 _016_
*63 _017_
*64 _018_
*65 _019_
*66 _020_
*67 _021_
*68 _022_
*69 _023_
*70 _024_
*71 _025_
*72 _026_
*73 _027_
*74 _028_
*75 _029_
*76 _030_
*77 _031_
*78 _032_
*79 _033_
*80 _034_
*81 _035_
*82 _036_
*83 _037_
*84 _038_
*85 _039_
*86 _040_
*87 _041_
*88 _042_
*89 _043_
*90 _044_
*91 _045_
*92 _046_
*93 _047_
*94 _048_
*95 _049_
*96 _050_
*97 _051_
*98 _052_
*99 _053_
*100 _054_
*101 _055_
*102 _056_
*103 _057_
*104 _058_
*105 _059_
*106 _060_
*107 _061_
*108 _062_
*109 _063_
*110 _064_
*111 _065_
*112 _066_
*113 _067_
*114 _068_
*115 _069_
*116 _070_
*117 _071_
*118 _072_
*119 _073_
*120 _074_
*121 _075_
*122 _076_
*123 _077_
*124 _078_
*125 _079_
*126 _080_
*127 _081_
*128 _082_
*129 _083_
*130 clknet_0_clk
*131 clknet_2_0__leaf_clk
*132 clknet_2_1__leaf_clk
*133 clknet_2_2__leaf_clk
*134 clknet_2_3__leaf_clk
*135 i_tree\.anomaly_detected
*136 i_tree\.buffer_toggle
*137 i_tree\.data_from_buffer\[0\]
*138 i_tree\.data_from_buffer\[1\]
*139 i_tree\.data_from_buffer\[2\]
*140 i_tree\.data_from_buffer\[3\]
*141 i_tree\.data_from_buffer\[4\]
*142 i_tree\.data_from_buffer\[5\]
*143 i_tree\.data_from_buffer\[6\]
*144 i_tree\.data_from_buffer\[7\]
*145 i_tree\.data_processed
*146 i_tree\.data_ready
*147 i_tree\.input_buffer_inst\.buffer_0\[0\]
*148 i_tree\.input_buffer_inst\.buffer_0\[1\]
*149 i_tree\.input_buffer_inst\.buffer_0\[2\]
*150 i_tree\.input_buffer_inst\.buffer_0\[3\]
*151 i_tree\.input_buffer_inst\.buffer_0\[4\]
*152 i_tree\.input_buffer_inst\.buffer_0\[5\]
*153 i_tree\.input_buffer_inst\.buffer_0\[6\]
*154 i_tree\.input_buffer_inst\.buffer_0\[7\]
*155 i_tree\.input_buffer_inst\.buffer_1\[0\]
*156 i_tree\.input_buffer_inst\.buffer_1\[1\]
*157 i_tree\.input_buffer_inst\.buffer_1\[2\]
*158 i_tree\.input_buffer_inst\.buffer_1\[3\]
*159 i_tree\.input_buffer_inst\.buffer_1\[4\]
*160 i_tree\.input_buffer_inst\.buffer_1\[5\]
*161 i_tree\.input_buffer_inst\.buffer_1\[6\]
*162 i_tree\.input_buffer_inst\.buffer_1\[7\]
*163 i_tree\.input_buffer_inst\.select
*164 i_tree\.isolation_tree_state_machine_inst\.buffer_toggle_reg
*165 i_tree\.isolation_tree_state_machine_inst\.current_state\[0\]
*166 i_tree\.isolation_tree_state_machine_inst\.current_state\[1\]
*167 i_tree\.isolation_tree_state_machine_inst\.next_state\[0\]
*168 i_tree\.isolation_tree_state_machine_inst\.next_state\[1\]
*169 net1
*170 net2
*171 net3
*172 net30
*173 net31
*174 net32
*175 net33
*176 net34
*177 net35
*178 net36
*179 net37
*180 net38
*181 net39
*182 net4
*183 net40
*184 net41
*185 net42
*186 net43
*187 net44
*188 net45
*189 net46
*190 net47
*191 net48
*192 net49
*193 net5
*194 net6
*195 FILLER_0_0_109
*196 FILLER_0_0_113
*197 FILLER_0_0_125
*198 FILLER_0_0_137
*199 FILLER_0_0_141
*200 FILLER_0_0_15
*201 FILLER_0_0_153
*202 FILLER_0_0_165
*203 FILLER_0_0_169
*204 FILLER_0_0_181
*205 FILLER_0_0_193
*206 FILLER_0_0_197
*207 FILLER_0_0_209
*208 FILLER_0_0_221
*209 FILLER_0_0_225
*210 FILLER_0_0_237
*211 FILLER_0_0_249
*212 FILLER_0_0_253
*213 FILLER_0_0_265
*214 FILLER_0_0_27
*215 FILLER_0_0_277
*216 FILLER_0_0_281
*217 FILLER_0_0_29
*218 FILLER_0_0_293
*219 FILLER_0_0_3
*220 FILLER_0_0_305
*221 FILLER_0_0_309
*222 FILLER_0_0_321
*223 FILLER_0_0_333
*224 FILLER_0_0_41
*225 FILLER_0_0_53
*226 FILLER_0_0_57
*227 FILLER_0_0_69
*228 FILLER_0_0_81
*229 FILLER_0_0_85
*230 FILLER_0_0_97
*231 FILLER_0_10_109
*232 FILLER_0_10_121
*233 FILLER_0_10_133
*234 FILLER_0_10_139
*235 FILLER_0_10_141
*236 FILLER_0_10_15
*237 FILLER_0_10_153
*238 FILLER_0_10_165
*239 FILLER_0_10_177
*240 FILLER_0_10_189
*241 FILLER_0_10_195
*242 FILLER_0_10_197
*243 FILLER_0_10_209
*244 FILLER_0_10_221
*245 FILLER_0_10_233
*246 FILLER_0_10_245
*247 FILLER_0_10_251
*248 FILLER_0_10_253
*249 FILLER_0_10_265
*250 FILLER_0_10_27
*251 FILLER_0_10_277
*252 FILLER_0_10_289
*253 FILLER_0_10_29
*254 FILLER_0_10_3
*255 FILLER_0_10_301
*256 FILLER_0_10_307
*257 FILLER_0_10_309
*258 FILLER_0_10_321
*259 FILLER_0_10_333
*260 FILLER_0_10_41
*261 FILLER_0_10_53
*262 FILLER_0_10_65
*263 FILLER_0_10_77
*264 FILLER_0_10_83
*265 FILLER_0_10_85
*266 FILLER_0_10_97
*267 FILLER_0_11_105
*268 FILLER_0_11_111
*269 FILLER_0_11_113
*270 FILLER_0_11_125
*271 FILLER_0_11_137
*272 FILLER_0_11_149
*273 FILLER_0_11_15
*274 FILLER_0_11_161
*275 FILLER_0_11_167
*276 FILLER_0_11_169
*277 FILLER_0_11_181
*278 FILLER_0_11_193
*279 FILLER_0_11_205
*280 FILLER_0_11_217
*281 FILLER_0_11_223
*282 FILLER_0_11_225
*283 FILLER_0_11_237
*284 FILLER_0_11_249
*285 FILLER_0_11_261
*286 FILLER_0_11_27
*287 FILLER_0_11_273
*288 FILLER_0_11_279
*289 FILLER_0_11_281
*290 FILLER_0_11_293
*291 FILLER_0_11_3
*292 FILLER_0_11_305
*293 FILLER_0_11_317
*294 FILLER_0_11_329
*295 FILLER_0_11_39
*296 FILLER_0_11_51
*297 FILLER_0_11_55
*298 FILLER_0_11_57
*299 FILLER_0_11_69
*300 FILLER_0_11_81
*301 FILLER_0_11_93
*302 FILLER_0_12_109
*303 FILLER_0_12_121
*304 FILLER_0_12_133
*305 FILLER_0_12_139
*306 FILLER_0_12_141
*307 FILLER_0_12_15
*308 FILLER_0_12_153
*309 FILLER_0_12_165
*310 FILLER_0_12_177
*311 FILLER_0_12_189
*312 FILLER_0_12_195
*313 FILLER_0_12_197
*314 FILLER_0_12_209
*315 FILLER_0_12_221
*316 FILLER_0_12_233
*317 FILLER_0_12_245
*318 FILLER_0_12_251
*319 FILLER_0_12_253
*320 FILLER_0_12_265
*321 FILLER_0_12_27
*322 FILLER_0_12_277
*323 FILLER_0_12_289
*324 FILLER_0_12_29
*325 FILLER_0_12_3
*326 FILLER_0_12_301
*327 FILLER_0_12_307
*328 FILLER_0_12_309
*329 FILLER_0_12_321
*330 FILLER_0_12_333
*331 FILLER_0_12_41
*332 FILLER_0_12_53
*333 FILLER_0_12_65
*334 FILLER_0_12_77
*335 FILLER_0_12_83
*336 FILLER_0_12_85
*337 FILLER_0_12_97
*338 FILLER_0_13_105
*339 FILLER_0_13_111
*340 FILLER_0_13_113
*341 FILLER_0_13_125
*342 FILLER_0_13_137
*343 FILLER_0_13_149
*344 FILLER_0_13_15
*345 FILLER_0_13_161
*346 FILLER_0_13_167
*347 FILLER_0_13_169
*348 FILLER_0_13_181
*349 FILLER_0_13_193
*350 FILLER_0_13_205
*351 FILLER_0_13_217
*352 FILLER_0_13_223
*353 FILLER_0_13_225
*354 FILLER_0_13_237
*355 FILLER_0_13_249
*356 FILLER_0_13_261
*357 FILLER_0_13_27
*358 FILLER_0_13_273
*359 FILLER_0_13_279
*360 FILLER_0_13_281
*361 FILLER_0_13_293
*362 FILLER_0_13_3
*363 FILLER_0_13_305
*364 FILLER_0_13_317
*365 FILLER_0_13_329
*366 FILLER_0_13_39
*367 FILLER_0_13_51
*368 FILLER_0_13_55
*369 FILLER_0_13_57
*370 FILLER_0_13_69
*371 FILLER_0_13_81
*372 FILLER_0_13_93
*373 FILLER_0_14_109
*374 FILLER_0_14_121
*375 FILLER_0_14_133
*376 FILLER_0_14_139
*377 FILLER_0_14_141
*378 FILLER_0_14_15
*379 FILLER_0_14_153
*380 FILLER_0_14_165
*381 FILLER_0_14_177
*382 FILLER_0_14_189
*383 FILLER_0_14_195
*384 FILLER_0_14_197
*385 FILLER_0_14_209
*386 FILLER_0_14_221
*387 FILLER_0_14_233
*388 FILLER_0_14_245
*389 FILLER_0_14_251
*390 FILLER_0_14_253
*391 FILLER_0_14_265
*392 FILLER_0_14_27
*393 FILLER_0_14_277
*394 FILLER_0_14_289
*395 FILLER_0_14_29
*396 FILLER_0_14_3
*397 FILLER_0_14_301
*398 FILLER_0_14_307
*399 FILLER_0_14_309
*400 FILLER_0_14_321
*401 FILLER_0_14_333
*402 FILLER_0_14_41
*403 FILLER_0_14_53
*404 FILLER_0_14_65
*405 FILLER_0_14_77
*406 FILLER_0_14_83
*407 FILLER_0_14_85
*408 FILLER_0_14_97
*409 FILLER_0_15_105
*410 FILLER_0_15_111
*411 FILLER_0_15_113
*412 FILLER_0_15_125
*413 FILLER_0_15_137
*414 FILLER_0_15_149
*415 FILLER_0_15_15
*416 FILLER_0_15_161
*417 FILLER_0_15_167
*418 FILLER_0_15_169
*419 FILLER_0_15_181
*420 FILLER_0_15_193
*421 FILLER_0_15_205
*422 FILLER_0_15_217
*423 FILLER_0_15_223
*424 FILLER_0_15_225
*425 FILLER_0_15_237
*426 FILLER_0_15_249
*427 FILLER_0_15_261
*428 FILLER_0_15_27
*429 FILLER_0_15_273
*430 FILLER_0_15_279
*431 FILLER_0_15_281
*432 FILLER_0_15_293
*433 FILLER_0_15_3
*434 FILLER_0_15_305
*435 FILLER_0_15_317
*436 FILLER_0_15_329
*437 FILLER_0_15_39
*438 FILLER_0_15_51
*439 FILLER_0_15_55
*440 FILLER_0_15_57
*441 FILLER_0_15_69
*442 FILLER_0_15_81
*443 FILLER_0_15_93
*444 FILLER_0_16_109
*445 FILLER_0_16_121
*446 FILLER_0_16_133
*447 FILLER_0_16_139
*448 FILLER_0_16_141
*449 FILLER_0_16_15
*450 FILLER_0_16_153
*451 FILLER_0_16_165
*452 FILLER_0_16_177
*453 FILLER_0_16_189
*454 FILLER_0_16_195
*455 FILLER_0_16_197
*456 FILLER_0_16_209
*457 FILLER_0_16_221
*458 FILLER_0_16_233
*459 FILLER_0_16_245
*460 FILLER_0_16_251
*461 FILLER_0_16_253
*462 FILLER_0_16_265
*463 FILLER_0_16_27
*464 FILLER_0_16_277
*465 FILLER_0_16_289
*466 FILLER_0_16_29
*467 FILLER_0_16_3
*468 FILLER_0_16_301
*469 FILLER_0_16_307
*470 FILLER_0_16_309
*471 FILLER_0_16_321
*472 FILLER_0_16_333
*473 FILLER_0_16_41
*474 FILLER_0_16_53
*475 FILLER_0_16_65
*476 FILLER_0_16_77
*477 FILLER_0_16_83
*478 FILLER_0_16_85
*479 FILLER_0_16_97
*480 FILLER_0_17_105
*481 FILLER_0_17_111
*482 FILLER_0_17_113
*483 FILLER_0_17_125
*484 FILLER_0_17_137
*485 FILLER_0_17_149
*486 FILLER_0_17_15
*487 FILLER_0_17_161
*488 FILLER_0_17_167
*489 FILLER_0_17_169
*490 FILLER_0_17_181
*491 FILLER_0_17_193
*492 FILLER_0_17_205
*493 FILLER_0_17_217
*494 FILLER_0_17_223
*495 FILLER_0_17_225
*496 FILLER_0_17_237
*497 FILLER_0_17_249
*498 FILLER_0_17_261
*499 FILLER_0_17_27
*500 FILLER_0_17_273
*501 FILLER_0_17_279
*502 FILLER_0_17_281
*503 FILLER_0_17_293
*504 FILLER_0_17_3
*505 FILLER_0_17_305
*506 FILLER_0_17_317
*507 FILLER_0_17_329
*508 FILLER_0_17_39
*509 FILLER_0_17_51
*510 FILLER_0_17_55
*511 FILLER_0_17_57
*512 FILLER_0_17_69
*513 FILLER_0_17_81
*514 FILLER_0_17_93
*515 FILLER_0_18_109
*516 FILLER_0_18_121
*517 FILLER_0_18_133
*518 FILLER_0_18_139
*519 FILLER_0_18_141
*520 FILLER_0_18_15
*521 FILLER_0_18_153
*522 FILLER_0_18_165
*523 FILLER_0_18_177
*524 FILLER_0_18_189
*525 FILLER_0_18_195
*526 FILLER_0_18_197
*527 FILLER_0_18_209
*528 FILLER_0_18_221
*529 FILLER_0_18_233
*530 FILLER_0_18_245
*531 FILLER_0_18_251
*532 FILLER_0_18_253
*533 FILLER_0_18_265
*534 FILLER_0_18_27
*535 FILLER_0_18_277
*536 FILLER_0_18_289
*537 FILLER_0_18_29
*538 FILLER_0_18_3
*539 FILLER_0_18_301
*540 FILLER_0_18_307
*541 FILLER_0_18_309
*542 FILLER_0_18_321
*543 FILLER_0_18_333
*544 FILLER_0_18_41
*545 FILLER_0_18_53
*546 FILLER_0_18_65
*547 FILLER_0_18_77
*548 FILLER_0_18_83
*549 FILLER_0_18_85
*550 FILLER_0_18_97
*551 FILLER_0_19_105
*552 FILLER_0_19_111
*553 FILLER_0_19_113
*554 FILLER_0_19_125
*555 FILLER_0_19_137
*556 FILLER_0_19_149
*557 FILLER_0_19_15
*558 FILLER_0_19_161
*559 FILLER_0_19_167
*560 FILLER_0_19_169
*561 FILLER_0_19_181
*562 FILLER_0_19_193
*563 FILLER_0_19_205
*564 FILLER_0_19_217
*565 FILLER_0_19_223
*566 FILLER_0_19_225
*567 FILLER_0_19_237
*568 FILLER_0_19_249
*569 FILLER_0_19_261
*570 FILLER_0_19_27
*571 FILLER_0_19_273
*572 FILLER_0_19_279
*573 FILLER_0_19_281
*574 FILLER_0_19_293
*575 FILLER_0_19_3
*576 FILLER_0_19_305
*577 FILLER_0_19_317
*578 FILLER_0_19_329
*579 FILLER_0_19_39
*580 FILLER_0_19_51
*581 FILLER_0_19_55
*582 FILLER_0_19_57
*583 FILLER_0_19_69
*584 FILLER_0_19_81
*585 FILLER_0_19_93
*586 FILLER_0_1_105
*587 FILLER_0_1_111
*588 FILLER_0_1_113
*589 FILLER_0_1_125
*590 FILLER_0_1_137
*591 FILLER_0_1_149
*592 FILLER_0_1_15
*593 FILLER_0_1_161
*594 FILLER_0_1_167
*595 FILLER_0_1_169
*596 FILLER_0_1_181
*597 FILLER_0_1_193
*598 FILLER_0_1_205
*599 FILLER_0_1_217
*600 FILLER_0_1_223
*601 FILLER_0_1_225
*602 FILLER_0_1_237
*603 FILLER_0_1_249
*604 FILLER_0_1_261
*605 FILLER_0_1_27
*606 FILLER_0_1_273
*607 FILLER_0_1_279
*608 FILLER_0_1_281
*609 FILLER_0_1_293
*610 FILLER_0_1_3
*611 FILLER_0_1_305
*612 FILLER_0_1_317
*613 FILLER_0_1_329
*614 FILLER_0_1_39
*615 FILLER_0_1_51
*616 FILLER_0_1_55
*617 FILLER_0_1_57
*618 FILLER_0_1_69
*619 FILLER_0_1_81
*620 FILLER_0_1_93
*621 FILLER_0_20_109
*622 FILLER_0_20_121
*623 FILLER_0_20_133
*624 FILLER_0_20_139
*625 FILLER_0_20_141
*626 FILLER_0_20_15
*627 FILLER_0_20_153
*628 FILLER_0_20_165
*629 FILLER_0_20_177
*630 FILLER_0_20_189
*631 FILLER_0_20_195
*632 FILLER_0_20_197
*633 FILLER_0_20_209
*634 FILLER_0_20_221
*635 FILLER_0_20_233
*636 FILLER_0_20_245
*637 FILLER_0_20_251
*638 FILLER_0_20_253
*639 FILLER_0_20_265
*640 FILLER_0_20_27
*641 FILLER_0_20_277
*642 FILLER_0_20_289
*643 FILLER_0_20_29
*644 FILLER_0_20_3
*645 FILLER_0_20_301
*646 FILLER_0_20_307
*647 FILLER_0_20_309
*648 FILLER_0_20_321
*649 FILLER_0_20_333
*650 FILLER_0_20_41
*651 FILLER_0_20_53
*652 FILLER_0_20_65
*653 FILLER_0_20_77
*654 FILLER_0_20_83
*655 FILLER_0_20_85
*656 FILLER_0_20_97
*657 FILLER_0_21_105
*658 FILLER_0_21_111
*659 FILLER_0_21_113
*660 FILLER_0_21_125
*661 FILLER_0_21_137
*662 FILLER_0_21_149
*663 FILLER_0_21_15
*664 FILLER_0_21_161
*665 FILLER_0_21_167
*666 FILLER_0_21_169
*667 FILLER_0_21_181
*668 FILLER_0_21_193
*669 FILLER_0_21_205
*670 FILLER_0_21_217
*671 FILLER_0_21_223
*672 FILLER_0_21_225
*673 FILLER_0_21_237
*674 FILLER_0_21_249
*675 FILLER_0_21_261
*676 FILLER_0_21_27
*677 FILLER_0_21_273
*678 FILLER_0_21_279
*679 FILLER_0_21_281
*680 FILLER_0_21_293
*681 FILLER_0_21_3
*682 FILLER_0_21_305
*683 FILLER_0_21_317
*684 FILLER_0_21_329
*685 FILLER_0_21_39
*686 FILLER_0_21_51
*687 FILLER_0_21_55
*688 FILLER_0_21_57
*689 FILLER_0_21_69
*690 FILLER_0_21_81
*691 FILLER_0_21_93
*692 FILLER_0_22_109
*693 FILLER_0_22_121
*694 FILLER_0_22_133
*695 FILLER_0_22_139
*696 FILLER_0_22_141
*697 FILLER_0_22_15
*698 FILLER_0_22_153
*699 FILLER_0_22_165
*700 FILLER_0_22_177
*701 FILLER_0_22_189
*702 FILLER_0_22_195
*703 FILLER_0_22_197
*704 FILLER_0_22_209
*705 FILLER_0_22_221
*706 FILLER_0_22_233
*707 FILLER_0_22_245
*708 FILLER_0_22_251
*709 FILLER_0_22_253
*710 FILLER_0_22_265
*711 FILLER_0_22_27
*712 FILLER_0_22_277
*713 FILLER_0_22_289
*714 FILLER_0_22_29
*715 FILLER_0_22_3
*716 FILLER_0_22_301
*717 FILLER_0_22_307
*718 FILLER_0_22_309
*719 FILLER_0_22_321
*720 FILLER_0_22_333
*721 FILLER_0_22_41
*722 FILLER_0_22_53
*723 FILLER_0_22_65
*724 FILLER_0_22_77
*725 FILLER_0_22_83
*726 FILLER_0_22_85
*727 FILLER_0_22_97
*728 FILLER_0_23_105
*729 FILLER_0_23_111
*730 FILLER_0_23_113
*731 FILLER_0_23_125
*732 FILLER_0_23_137
*733 FILLER_0_23_149
*734 FILLER_0_23_15
*735 FILLER_0_23_161
*736 FILLER_0_23_167
*737 FILLER_0_23_169
*738 FILLER_0_23_181
*739 FILLER_0_23_193
*740 FILLER_0_23_205
*741 FILLER_0_23_217
*742 FILLER_0_23_223
*743 FILLER_0_23_225
*744 FILLER_0_23_237
*745 FILLER_0_23_249
*746 FILLER_0_23_261
*747 FILLER_0_23_27
*748 FILLER_0_23_273
*749 FILLER_0_23_279
*750 FILLER_0_23_281
*751 FILLER_0_23_293
*752 FILLER_0_23_3
*753 FILLER_0_23_305
*754 FILLER_0_23_317
*755 FILLER_0_23_329
*756 FILLER_0_23_39
*757 FILLER_0_23_51
*758 FILLER_0_23_55
*759 FILLER_0_23_57
*760 FILLER_0_23_69
*761 FILLER_0_23_81
*762 FILLER_0_23_93
*763 FILLER_0_24_109
*764 FILLER_0_24_121
*765 FILLER_0_24_133
*766 FILLER_0_24_139
*767 FILLER_0_24_141
*768 FILLER_0_24_15
*769 FILLER_0_24_153
*770 FILLER_0_24_165
*771 FILLER_0_24_177
*772 FILLER_0_24_189
*773 FILLER_0_24_195
*774 FILLER_0_24_197
*775 FILLER_0_24_209
*776 FILLER_0_24_221
*777 FILLER_0_24_233
*778 FILLER_0_24_245
*779 FILLER_0_24_251
*780 FILLER_0_24_253
*781 FILLER_0_24_265
*782 FILLER_0_24_27
*783 FILLER_0_24_277
*784 FILLER_0_24_289
*785 FILLER_0_24_29
*786 FILLER_0_24_3
*787 FILLER_0_24_301
*788 FILLER_0_24_307
*789 FILLER_0_24_309
*790 FILLER_0_24_321
*791 FILLER_0_24_333
*792 FILLER_0_24_41
*793 FILLER_0_24_53
*794 FILLER_0_24_65
*795 FILLER_0_24_77
*796 FILLER_0_24_83
*797 FILLER_0_24_85
*798 FILLER_0_24_97
*799 FILLER_0_25_105
*800 FILLER_0_25_111
*801 FILLER_0_25_113
*802 FILLER_0_25_125
*803 FILLER_0_25_137
*804 FILLER_0_25_149
*805 FILLER_0_25_15
*806 FILLER_0_25_161
*807 FILLER_0_25_167
*808 FILLER_0_25_169
*809 FILLER_0_25_181
*810 FILLER_0_25_193
*811 FILLER_0_25_205
*812 FILLER_0_25_217
*813 FILLER_0_25_223
*814 FILLER_0_25_225
*815 FILLER_0_25_237
*816 FILLER_0_25_249
*817 FILLER_0_25_255
*818 FILLER_0_25_266
*819 FILLER_0_25_27
*820 FILLER_0_25_278
*821 FILLER_0_25_281
*822 FILLER_0_25_293
*823 FILLER_0_25_3
*824 FILLER_0_25_305
*825 FILLER_0_25_317
*826 FILLER_0_25_329
*827 FILLER_0_25_39
*828 FILLER_0_25_51
*829 FILLER_0_25_55
*830 FILLER_0_25_57
*831 FILLER_0_25_69
*832 FILLER_0_25_81
*833 FILLER_0_25_93
*834 FILLER_0_26_109
*835 FILLER_0_26_121
*836 FILLER_0_26_133
*837 FILLER_0_26_139
*838 FILLER_0_26_141
*839 FILLER_0_26_15
*840 FILLER_0_26_153
*841 FILLER_0_26_165
*842 FILLER_0_26_177
*843 FILLER_0_26_189
*844 FILLER_0_26_195
*845 FILLER_0_26_197
*846 FILLER_0_26_205
*847 FILLER_0_26_231
*848 FILLER_0_26_243
*849 FILLER_0_26_27
*850 FILLER_0_26_281
*851 FILLER_0_26_29
*852 FILLER_0_26_293
*853 FILLER_0_26_3
*854 FILLER_0_26_305
*855 FILLER_0_26_309
*856 FILLER_0_26_321
*857 FILLER_0_26_333
*858 FILLER_0_26_41
*859 FILLER_0_26_53
*860 FILLER_0_26_65
*861 FILLER_0_26_77
*862 FILLER_0_26_83
*863 FILLER_0_26_85
*864 FILLER_0_26_97
*865 FILLER_0_27_105
*866 FILLER_0_27_111
*867 FILLER_0_27_113
*868 FILLER_0_27_125
*869 FILLER_0_27_137
*870 FILLER_0_27_149
*871 FILLER_0_27_15
*872 FILLER_0_27_161
*873 FILLER_0_27_167
*874 FILLER_0_27_169
*875 FILLER_0_27_181
*876 FILLER_0_27_193
*877 FILLER_0_27_199
*878 FILLER_0_27_203
*879 FILLER_0_27_241
*880 FILLER_0_27_27
*881 FILLER_0_27_274
*882 FILLER_0_27_3
*883 FILLER_0_27_309
*884 FILLER_0_27_321
*885 FILLER_0_27_333
*886 FILLER_0_27_39
*887 FILLER_0_27_51
*888 FILLER_0_27_55
*889 FILLER_0_27_57
*890 FILLER_0_27_69
*891 FILLER_0_27_81
*892 FILLER_0_27_93
*893 FILLER_0_28_109
*894 FILLER_0_28_121
*895 FILLER_0_28_133
*896 FILLER_0_28_139
*897 FILLER_0_28_141
*898 FILLER_0_28_15
*899 FILLER_0_28_153
*900 FILLER_0_28_165
*901 FILLER_0_28_177
*902 FILLER_0_28_189
*903 FILLER_0_28_195
*904 FILLER_0_28_217
*905 FILLER_0_28_236
*906 FILLER_0_28_242
*907 FILLER_0_28_27
*908 FILLER_0_28_29
*909 FILLER_0_28_3
*910 FILLER_0_28_327
*911 FILLER_0_28_41
*912 FILLER_0_28_53
*913 FILLER_0_28_65
*914 FILLER_0_28_77
*915 FILLER_0_28_83
*916 FILLER_0_28_85
*917 FILLER_0_28_97
*918 FILLER_0_29_105
*919 FILLER_0_29_111
*920 FILLER_0_29_113
*921 FILLER_0_29_125
*922 FILLER_0_29_137
*923 FILLER_0_29_149
*924 FILLER_0_29_15
*925 FILLER_0_29_161
*926 FILLER_0_29_167
*927 FILLER_0_29_169
*928 FILLER_0_29_192
*929 FILLER_0_29_200
*930 FILLER_0_29_233
*931 FILLER_0_29_243
*932 FILLER_0_29_253
*933 FILLER_0_29_27
*934 FILLER_0_29_274
*935 FILLER_0_29_287
*936 FILLER_0_29_3
*937 FILLER_0_29_332
*938 FILLER_0_29_39
*939 FILLER_0_29_51
*940 FILLER_0_29_55
*941 FILLER_0_29_57
*942 FILLER_0_29_69
*943 FILLER_0_29_81
*944 FILLER_0_29_93
*945 FILLER_0_2_109
*946 FILLER_0_2_121
*947 FILLER_0_2_133
*948 FILLER_0_2_139
*949 FILLER_0_2_141
*950 FILLER_0_2_15
*951 FILLER_0_2_153
*952 FILLER_0_2_165
*953 FILLER_0_2_177
*954 FILLER_0_2_189
*955 FILLER_0_2_195
*956 FILLER_0_2_197
*957 FILLER_0_2_209
*958 FILLER_0_2_221
*959 FILLER_0_2_233
*960 FILLER_0_2_245
*961 FILLER_0_2_251
*962 FILLER_0_2_253
*963 FILLER_0_2_265
*964 FILLER_0_2_27
*965 FILLER_0_2_277
*966 FILLER_0_2_289
*967 FILLER_0_2_29
*968 FILLER_0_2_3
*969 FILLER_0_2_301
*970 FILLER_0_2_307
*971 FILLER_0_2_309
*972 FILLER_0_2_321
*973 FILLER_0_2_333
*974 FILLER_0_2_41
*975 FILLER_0_2_53
*976 FILLER_0_2_65
*977 FILLER_0_2_77
*978 FILLER_0_2_83
*979 FILLER_0_2_85
*980 FILLER_0_2_97
*981 FILLER_0_30_109
*982 FILLER_0_30_121
*983 FILLER_0_30_133
*984 FILLER_0_30_139
*985 FILLER_0_30_141
*986 FILLER_0_30_15
*987 FILLER_0_30_153
*988 FILLER_0_30_165
*989 FILLER_0_30_169
*990 FILLER_0_30_190
*991 FILLER_0_30_197
*992 FILLER_0_30_209
*993 FILLER_0_30_251
*994 FILLER_0_30_256
*995 FILLER_0_30_266
*996 FILLER_0_30_27
*997 FILLER_0_30_29
*998 FILLER_0_30_3
*999 FILLER_0_30_305
*1000 FILLER_0_30_309
*1001 FILLER_0_30_330
*1002 FILLER_0_30_334
*1003 FILLER_0_30_41
*1004 FILLER_0_30_53
*1005 FILLER_0_30_65
*1006 FILLER_0_30_77
*1007 FILLER_0_30_83
*1008 FILLER_0_30_85
*1009 FILLER_0_30_97
*1010 FILLER_0_31_105
*1011 FILLER_0_31_111
*1012 FILLER_0_31_113
*1013 FILLER_0_31_125
*1014 FILLER_0_31_137
*1015 FILLER_0_31_149
*1016 FILLER_0_31_15
*1017 FILLER_0_31_161
*1018 FILLER_0_31_167
*1019 FILLER_0_31_169
*1020 FILLER_0_31_179
*1021 FILLER_0_31_203
*1022 FILLER_0_31_217
*1023 FILLER_0_31_231
*1024 FILLER_0_31_239
*1025 FILLER_0_31_269
*1026 FILLER_0_31_27
*1027 FILLER_0_31_277
*1028 FILLER_0_31_281
*1029 FILLER_0_31_285
*1030 FILLER_0_31_297
*1031 FILLER_0_31_3
*1032 FILLER_0_31_311
*1033 FILLER_0_31_324
*1034 FILLER_0_31_332
*1035 FILLER_0_31_39
*1036 FILLER_0_31_51
*1037 FILLER_0_31_55
*1038 FILLER_0_31_57
*1039 FILLER_0_31_69
*1040 FILLER_0_31_81
*1041 FILLER_0_31_93
*1042 FILLER_0_32_109
*1043 FILLER_0_32_121
*1044 FILLER_0_32_133
*1045 FILLER_0_32_139
*1046 FILLER_0_32_141
*1047 FILLER_0_32_15
*1048 FILLER_0_32_153
*1049 FILLER_0_32_165
*1050 FILLER_0_32_177
*1051 FILLER_0_32_189
*1052 FILLER_0_32_195
*1053 FILLER_0_32_197
*1054 FILLER_0_32_203
*1055 FILLER_0_32_233
*1056 FILLER_0_32_245
*1057 FILLER_0_32_251
*1058 FILLER_0_32_27
*1059 FILLER_0_32_273
*1060 FILLER_0_32_29
*1061 FILLER_0_32_292
*1062 FILLER_0_32_3
*1063 FILLER_0_32_304
*1064 FILLER_0_32_329
*1065 FILLER_0_32_41
*1066 FILLER_0_32_53
*1067 FILLER_0_32_65
*1068 FILLER_0_32_77
*1069 FILLER_0_32_83
*1070 FILLER_0_32_85
*1071 FILLER_0_32_97
*1072 FILLER_0_33_105
*1073 FILLER_0_33_111
*1074 FILLER_0_33_113
*1075 FILLER_0_33_125
*1076 FILLER_0_33_137
*1077 FILLER_0_33_149
*1078 FILLER_0_33_15
*1079 FILLER_0_33_161
*1080 FILLER_0_33_167
*1081 FILLER_0_33_169
*1082 FILLER_0_33_183
*1083 FILLER_0_33_213
*1084 FILLER_0_33_217
*1085 FILLER_0_33_221
*1086 FILLER_0_33_225
*1087 FILLER_0_33_235
*1088 FILLER_0_33_265
*1089 FILLER_0_33_27
*1090 FILLER_0_33_289
*1091 FILLER_0_33_3
*1092 FILLER_0_33_301
*1093 FILLER_0_33_323
*1094 FILLER_0_33_39
*1095 FILLER_0_33_51
*1096 FILLER_0_33_55
*1097 FILLER_0_33_57
*1098 FILLER_0_33_69
*1099 FILLER_0_33_81
*1100 FILLER_0_33_93
*1101 FILLER_0_34_109
*1102 FILLER_0_34_121
*1103 FILLER_0_34_133
*1104 FILLER_0_34_139
*1105 FILLER_0_34_141
*1106 FILLER_0_34_15
*1107 FILLER_0_34_153
*1108 FILLER_0_34_165
*1109 FILLER_0_34_195
*1110 FILLER_0_34_219
*1111 FILLER_0_34_250
*1112 FILLER_0_34_27
*1113 FILLER_0_34_285
*1114 FILLER_0_34_29
*1115 FILLER_0_34_290
*1116 FILLER_0_34_298
*1117 FILLER_0_34_3
*1118 FILLER_0_34_327
*1119 FILLER_0_34_41
*1120 FILLER_0_34_53
*1121 FILLER_0_34_65
*1122 FILLER_0_34_77
*1123 FILLER_0_34_83
*1124 FILLER_0_34_85
*1125 FILLER_0_34_97
*1126 FILLER_0_35_105
*1127 FILLER_0_35_111
*1128 FILLER_0_35_113
*1129 FILLER_0_35_125
*1130 FILLER_0_35_137
*1131 FILLER_0_35_149
*1132 FILLER_0_35_15
*1133 FILLER_0_35_157
*1134 FILLER_0_35_228
*1135 FILLER_0_35_256
*1136 FILLER_0_35_261
*1137 FILLER_0_35_27
*1138 FILLER_0_35_290
*1139 FILLER_0_35_3
*1140 FILLER_0_35_331
*1141 FILLER_0_35_39
*1142 FILLER_0_35_51
*1143 FILLER_0_35_55
*1144 FILLER_0_35_57
*1145 FILLER_0_35_69
*1146 FILLER_0_35_81
*1147 FILLER_0_35_93
*1148 FILLER_0_36_109
*1149 FILLER_0_36_121
*1150 FILLER_0_36_133
*1151 FILLER_0_36_139
*1152 FILLER_0_36_141
*1153 FILLER_0_36_15
*1154 FILLER_0_36_153
*1155 FILLER_0_36_165
*1156 FILLER_0_36_173
*1157 FILLER_0_36_208
*1158 FILLER_0_36_250
*1159 FILLER_0_36_262
*1160 FILLER_0_36_27
*1161 FILLER_0_36_29
*1162 FILLER_0_36_3
*1163 FILLER_0_36_329
*1164 FILLER_0_36_41
*1165 FILLER_0_36_53
*1166 FILLER_0_36_65
*1167 FILLER_0_36_77
*1168 FILLER_0_36_83
*1169 FILLER_0_36_85
*1170 FILLER_0_36_97
*1171 FILLER_0_37_105
*1172 FILLER_0_37_111
*1173 FILLER_0_37_113
*1174 FILLER_0_37_125
*1175 FILLER_0_37_137
*1176 FILLER_0_37_149
*1177 FILLER_0_37_15
*1178 FILLER_0_37_161
*1179 FILLER_0_37_167
*1180 FILLER_0_37_169
*1181 FILLER_0_37_174
*1182 FILLER_0_37_217
*1183 FILLER_0_37_223
*1184 FILLER_0_37_245
*1185 FILLER_0_37_255
*1186 FILLER_0_37_259
*1187 FILLER_0_37_27
*1188 FILLER_0_37_290
*1189 FILLER_0_37_298
*1190 FILLER_0_37_3
*1191 FILLER_0_37_334
*1192 FILLER_0_37_39
*1193 FILLER_0_37_51
*1194 FILLER_0_37_55
*1195 FILLER_0_37_57
*1196 FILLER_0_37_69
*1197 FILLER_0_37_81
*1198 FILLER_0_37_93
*1199 FILLER_0_38_10
*1200 FILLER_0_38_102
*1201 FILLER_0_38_106
*1202 FILLER_0_38_110
*1203 FILLER_0_38_113
*1204 FILLER_0_38_118
*1205 FILLER_0_38_122
*1206 FILLER_0_38_126
*1207 FILLER_0_38_130
*1208 FILLER_0_38_134
*1209 FILLER_0_38_14
*1210 FILLER_0_38_144
*1211 FILLER_0_38_150
*1212 FILLER_0_38_154
*1213 FILLER_0_38_158
*1214 FILLER_0_38_162
*1215 FILLER_0_38_166
*1216 FILLER_0_38_169
*1217 FILLER_0_38_18
*1218 FILLER_0_38_193
*1219 FILLER_0_38_205
*1220 FILLER_0_38_217
*1221 FILLER_0_38_22
*1222 FILLER_0_38_223
*1223 FILLER_0_38_246
*1224 FILLER_0_38_261
*1225 FILLER_0_38_267
*1226 FILLER_0_38_272
*1227 FILLER_0_38_281
*1228 FILLER_0_38_293
*1229 FILLER_0_38_299
*1230 FILLER_0_38_306
*1231 FILLER_0_38_32
*1232 FILLER_0_38_328
*1233 FILLER_0_38_334
*1234 FILLER_0_38_38
*1235 FILLER_0_38_42
*1236 FILLER_0_38_46
*1237 FILLER_0_38_50
*1238 FILLER_0_38_54
*1239 FILLER_0_38_57
*1240 FILLER_0_38_6
*1241 FILLER_0_38_62
*1242 FILLER_0_38_66
*1243 FILLER_0_38_70
*1244 FILLER_0_38_74
*1245 FILLER_0_38_78
*1246 FILLER_0_38_88
*1247 FILLER_0_38_94
*1248 FILLER_0_38_98
*1249 FILLER_0_3_105
*1250 FILLER_0_3_111
*1251 FILLER_0_3_113
*1252 FILLER_0_3_125
*1253 FILLER_0_3_137
*1254 FILLER_0_3_149
*1255 FILLER_0_3_15
*1256 FILLER_0_3_161
*1257 FILLER_0_3_167
*1258 FILLER_0_3_169
*1259 FILLER_0_3_181
*1260 FILLER_0_3_193
*1261 FILLER_0_3_205
*1262 FILLER_0_3_217
*1263 FILLER_0_3_223
*1264 FILLER_0_3_225
*1265 FILLER_0_3_237
*1266 FILLER_0_3_249
*1267 FILLER_0_3_261
*1268 FILLER_0_3_27
*1269 FILLER_0_3_273
*1270 FILLER_0_3_279
*1271 FILLER_0_3_281
*1272 FILLER_0_3_293
*1273 FILLER_0_3_3
*1274 FILLER_0_3_305
*1275 FILLER_0_3_317
*1276 FILLER_0_3_329
*1277 FILLER_0_3_39
*1278 FILLER_0_3_51
*1279 FILLER_0_3_55
*1280 FILLER_0_3_57
*1281 FILLER_0_3_69
*1282 FILLER_0_3_81
*1283 FILLER_0_3_93
*1284 FILLER_0_4_109
*1285 FILLER_0_4_121
*1286 FILLER_0_4_133
*1287 FILLER_0_4_139
*1288 FILLER_0_4_141
*1289 FILLER_0_4_15
*1290 FILLER_0_4_153
*1291 FILLER_0_4_165
*1292 FILLER_0_4_177
*1293 FILLER_0_4_189
*1294 FILLER_0_4_195
*1295 FILLER_0_4_197
*1296 FILLER_0_4_209
*1297 FILLER_0_4_221
*1298 FILLER_0_4_233
*1299 FILLER_0_4_245
*1300 FILLER_0_4_251
*1301 FILLER_0_4_253
*1302 FILLER_0_4_265
*1303 FILLER_0_4_27
*1304 FILLER_0_4_277
*1305 FILLER_0_4_289
*1306 FILLER_0_4_29
*1307 FILLER_0_4_3
*1308 FILLER_0_4_301
*1309 FILLER_0_4_307
*1310 FILLER_0_4_309
*1311 FILLER_0_4_321
*1312 FILLER_0_4_333
*1313 FILLER_0_4_41
*1314 FILLER_0_4_53
*1315 FILLER_0_4_65
*1316 FILLER_0_4_77
*1317 FILLER_0_4_83
*1318 FILLER_0_4_85
*1319 FILLER_0_4_97
*1320 FILLER_0_5_105
*1321 FILLER_0_5_111
*1322 FILLER_0_5_113
*1323 FILLER_0_5_125
*1324 FILLER_0_5_137
*1325 FILLER_0_5_149
*1326 FILLER_0_5_15
*1327 FILLER_0_5_161
*1328 FILLER_0_5_167
*1329 FILLER_0_5_169
*1330 FILLER_0_5_181
*1331 FILLER_0_5_193
*1332 FILLER_0_5_205
*1333 FILLER_0_5_217
*1334 FILLER_0_5_223
*1335 FILLER_0_5_225
*1336 FILLER_0_5_237
*1337 FILLER_0_5_249
*1338 FILLER_0_5_261
*1339 FILLER_0_5_27
*1340 FILLER_0_5_273
*1341 FILLER_0_5_279
*1342 FILLER_0_5_281
*1343 FILLER_0_5_293
*1344 FILLER_0_5_3
*1345 FILLER_0_5_305
*1346 FILLER_0_5_317
*1347 FILLER_0_5_329
*1348 FILLER_0_5_39
*1349 FILLER_0_5_51
*1350 FILLER_0_5_55
*1351 FILLER_0_5_57
*1352 FILLER_0_5_69
*1353 FILLER_0_5_81
*1354 FILLER_0_5_93
*1355 FILLER_0_6_109
*1356 FILLER_0_6_121
*1357 FILLER_0_6_133
*1358 FILLER_0_6_139
*1359 FILLER_0_6_141
*1360 FILLER_0_6_15
*1361 FILLER_0_6_153
*1362 FILLER_0_6_165
*1363 FILLER_0_6_177
*1364 FILLER_0_6_189
*1365 FILLER_0_6_195
*1366 FILLER_0_6_197
*1367 FILLER_0_6_209
*1368 FILLER_0_6_221
*1369 FILLER_0_6_233
*1370 FILLER_0_6_245
*1371 FILLER_0_6_251
*1372 FILLER_0_6_253
*1373 FILLER_0_6_265
*1374 FILLER_0_6_27
*1375 FILLER_0_6_277
*1376 FILLER_0_6_289
*1377 FILLER_0_6_29
*1378 FILLER_0_6_3
*1379 FILLER_0_6_301
*1380 FILLER_0_6_307
*1381 FILLER_0_6_309
*1382 FILLER_0_6_321
*1383 FILLER_0_6_333
*1384 FILLER_0_6_41
*1385 FILLER_0_6_53
*1386 FILLER_0_6_65
*1387 FILLER_0_6_77
*1388 FILLER_0_6_83
*1389 FILLER_0_6_85
*1390 FILLER_0_6_97
*1391 FILLER_0_7_105
*1392 FILLER_0_7_111
*1393 FILLER_0_7_113
*1394 FILLER_0_7_125
*1395 FILLER_0_7_137
*1396 FILLER_0_7_149
*1397 FILLER_0_7_15
*1398 FILLER_0_7_161
*1399 FILLER_0_7_167
*1400 FILLER_0_7_169
*1401 FILLER_0_7_181
*1402 FILLER_0_7_193
*1403 FILLER_0_7_205
*1404 FILLER_0_7_217
*1405 FILLER_0_7_223
*1406 FILLER_0_7_225
*1407 FILLER_0_7_237
*1408 FILLER_0_7_249
*1409 FILLER_0_7_261
*1410 FILLER_0_7_27
*1411 FILLER_0_7_273
*1412 FILLER_0_7_279
*1413 FILLER_0_7_281
*1414 FILLER_0_7_293
*1415 FILLER_0_7_3
*1416 FILLER_0_7_305
*1417 FILLER_0_7_317
*1418 FILLER_0_7_329
*1419 FILLER_0_7_39
*1420 FILLER_0_7_51
*1421 FILLER_0_7_55
*1422 FILLER_0_7_57
*1423 FILLER_0_7_69
*1424 FILLER_0_7_81
*1425 FILLER_0_7_93
*1426 FILLER_0_8_109
*1427 FILLER_0_8_121
*1428 FILLER_0_8_133
*1429 FILLER_0_8_139
*1430 FILLER_0_8_141
*1431 FILLER_0_8_15
*1432 FILLER_0_8_153
*1433 FILLER_0_8_165
*1434 FILLER_0_8_177
*1435 FILLER_0_8_189
*1436 FILLER_0_8_195
*1437 FILLER_0_8_197
*1438 FILLER_0_8_209
*1439 FILLER_0_8_221
*1440 FILLER_0_8_233
*1441 FILLER_0_8_245
*1442 FILLER_0_8_251
*1443 FILLER_0_8_253
*1444 FILLER_0_8_265
*1445 FILLER_0_8_27
*1446 FILLER_0_8_277
*1447 FILLER_0_8_289
*1448 FILLER_0_8_29
*1449 FILLER_0_8_3
*1450 FILLER_0_8_301
*1451 FILLER_0_8_307
*1452 FILLER_0_8_309
*1453 FILLER_0_8_321
*1454 FILLER_0_8_333
*1455 FILLER_0_8_41
*1456 FILLER_0_8_53
*1457 FILLER_0_8_65
*1458 FILLER_0_8_77
*1459 FILLER_0_8_83
*1460 FILLER_0_8_85
*1461 FILLER_0_8_97
*1462 FILLER_0_9_105
*1463 FILLER_0_9_111
*1464 FILLER_0_9_113
*1465 FILLER_0_9_125