*SPEF "ieee 1481-1999"
*DESIGN "tt_um_ejfogleman_smsdac"
*DATE "04:32:31 Thursday April 18, 2024"
*VENDOR "The OpenROAD Project"
*PROGRAM "OpenROAD"
*VERSION "0889970d1790a2617e69f253221b8bd7626e51dc"
*DESIGN_FLOW "NAME_SCOPE LOCAL" "PIN_CAP NONE"
*DIVIDER /
*DELIMITER :
*BUS_DELIMITER []
*T_UNIT 1 NS
*C_UNIT 1 PF
*R_UNIT 1 OHM
*L_UNIT 1 HENRY

*NAME_MAP
*3 clk
*4 ena
*5 rst_n
*6 ui_in[0]
*7 ui_in[1]
*8 ui_in[2]
*9 ui_in[3]
*10 ui_in[4]
*11 ui_in[5]
*12 ui_in[6]
*13 ui_in[7]
*14 uio_in[0]
*15 uio_in[1]
*16 uio_in[2]
*17 uio_in[3]
*18 uio_in[4]
*19 uio_in[5]
*20 uio_in[6]
*21 uio_in[7]
*22 net14
*23 net15
*24 net16
*25 net17
*26 net18
*27 net19
*28 net20
*29 net21
*30 net22
*31 net23
*32 net24
*33 net25
*34 net26
*35 net27
*36 net28
*37 net29
*38 uo_out[0]
*39 uo_out[1]
*40 uo_out[2]
*41 uo_out[3]
*42 uo_out[4]
*43 uo_out[5]
*44 uo_out[6]
*45 uo_out[7]
*46 _000_
*47 _001_
*48 _002_
*49 _003_
*50 _004_
*51 _005_
*52 _006_
*53 _007_
*54 _008_
*55 _009_
*56 _010_
*57 _011_
*58 _012_
*59 _013_
*60 _014_
*61 _015_
*62 _016_
*63 _017_
*64 _018_
*65 _019_
*66 _020_
*67 _021_
*68 _022_
*69 _023_
*70 _024_
*71 _025_
*72 _026_
*73 _027_
*74 _028_
*75 _029_
*76 _030_
*77 _031_
*78 _032_
*79 _033_
*80 _034_
*81 _035_
*82 _036_
*83 _037_
*84 _038_
*85 _039_
*86 _040_
*87 _041_
*88 _042_
*89 _043_
*90 _044_
*91 _045_
*92 _046_
*93 _047_
*94 _048_
*95 _049_
*96 _050_
*97 _051_
*98 _052_
*99 _053_
*100 _054_
*101 _055_
*102 _056_
*103 _057_
*104 _058_
*105 _059_
*106 _060_
*107 _061_
*108 clknet_0_clk
*109 clknet_2_0__leaf_clk
*110 clknet_2_1__leaf_clk
*111 clknet_2_2__leaf_clk
*112 clknet_2_3__leaf_clk
*113 net1
*114 net10
*115 net11
*116 net12
*117 net13
*118 net2
*119 net3
*120 net30
*121 net31
*122 net32
*123 net33
*124 net34
*125 net35
*126 net36
*127 net37
*128 net38
*129 net39
*130 net4
*131 net40
*132 net41
*133 net42
*134 net43
*135 net44
*136 net45
*137 net46
*138 net47
*139 net48
*140 net49
*141 net5
*142 net50
*143 net6
*144 net7
*145 net8
*146 net9
*147 u_top\.d_sync\[0\]
*148 u_top\.d_sync\[1\]
*149 u_top\.d_sync\[2\]
*150 u_top\.d_sync\[3\]
*151 u_top\.d_sync\[4\]
*152 u_top\.d_sync\[5\]
*153 u_top\.d_sync\[6\]
*154 u_top\.d_sync\[7\]
*155 u_top\.u_dac\.u_s0\.q
*156 u_top\.u_dac\.u_s0\.q0
*157 u_top\.u_dac\.u_s1\.q
*158 u_top\.u_dac\.u_s1\.q0
*159 u_top\.u_dac\.u_s2\.q
*160 u_top\.u_dac\.u_s2\.q0
*161 u_top\.u_dac\.u_s3\.q
*162 u_top\.u_dac\.u_s3\.q0
*163 u_top\.u_dac\.u_s4\.q
*164 u_top\.u_dac\.u_s4\.q0
*165 u_top\.u_dac\.u_s4\.y0
*166 u_top\.u_dac\.u_s4\.y1
*167 u_top\.u_dac\.u_s5\.q
*168 u_top\.u_dac\.u_s5\.q0
*169 u_top\.u_dac\.u_s5\.y0
*170 u_top\.u_dac\.u_s5\.y1
*171 u_top\.u_dac\.u_s6\.q
*172 u_top\.u_dac\.u_s6\.q0
*173 u_top\.u_dac\.u_s6\.y0
*174 u_top\.u_dac\.u_s6\.y1
*175 u_top\.u_dac\.u_s6\.y_c
*176 u_top\.u_sync\.q0\[0\]
*177 u_top\.u_sync\.q0\[1\]
*178 u_top\.u_sync\.q0\[2\]
*179 u_top\.u_sync\.q0\[3\]
*180 u_top\.u_sync\.q0\[4\]
*181 u_top\.u_sync\.q0\[5\]
*182 u_top\.u_sync\.q0\[6\]
*183 u_top\.u_sync\.q0\[7\]
*184 FILLER_0_0_109
*185 FILLER_0_0_113
*186 FILLER_0_0_125
*187 FILLER_0_0_137
*188 FILLER_0_0_141
*189 FILLER_0_0_15
*190 FILLER_0_0_153
*191 FILLER_0_0_165
*192 FILLER_0_0_169
*193 FILLER_0_0_181
*194 FILLER_0_0_193
*195 FILLER_0_0_197
*196 FILLER_0_0_209
*197 FILLER_0_0_221
*198 FILLER_0_0_225
*199 FILLER_0_0_237
*200 FILLER_0_0_249
*201 FILLER_0_0_253
*202 FILLER_0_0_265
*203 FILLER_0_0_27
*204 FILLER_0_0_277
*205 FILLER_0_0_281
*206 FILLER_0_0_29
*207 FILLER_0_0_293
*208 FILLER_0_0_3
*209 FILLER_0_0_305
*210 FILLER_0_0_309
*211 FILLER_0_0_321
*212 FILLER_0_0_333
*213 FILLER_0_0_41
*214 FILLER_0_0_53
*215 FILLER_0_0_57
*216 FILLER_0_0_69
*217 FILLER_0_0_81
*218 FILLER_0_0_85
*219 FILLER_0_0_97
*220 FILLER_0_10_109
*221 FILLER_0_10_121
*222 FILLER_0_10_133
*223 FILLER_0_10_139
*224 FILLER_0_10_141
*225 FILLER_0_10_15
*226 FILLER_0_10_153
*227 FILLER_0_10_165
*228 FILLER_0_10_177
*229 FILLER_0_10_189
*230 FILLER_0_10_195
*231 FILLER_0_10_197
*232 FILLER_0_10_209
*233 FILLER_0_10_221
*234 FILLER_0_10_233
*235 FILLER_0_10_245
*236 FILLER_0_10_251
*237 FILLER_0_10_253
*238 FILLER_0_10_265
*239 FILLER_0_10_27
*240 FILLER_0_10_277
*241 FILLER_0_10_289
*242 FILLER_0_10_29
*243 FILLER_0_10_3
*244 FILLER_0_10_301
*245 FILLER_0_10_307
*246 FILLER_0_10_309
*247 FILLER_0_10_321
*248 FILLER_0_10_333
*249 FILLER_0_10_41
*250 FILLER_0_10_53
*251 FILLER_0_10_65
*252 FILLER_0_10_77
*253 FILLER_0_10_83
*254 FILLER_0_10_85
*255 FILLER_0_10_97
*256 FILLER_0_11_105
*257 FILLER_0_11_111
*258 FILLER_0_11_113
*259 FILLER_0_11_125
*260 FILLER_0_11_137
*261 FILLER_0_11_149
*262 FILLER_0_11_15
*263 FILLER_0_11_161
*264 FILLER_0_11_167
*265 FILLER_0_11_169
*266 FILLER_0_11_181
*267 FILLER_0_11_193
*268 FILLER_0_11_205
*269 FILLER_0_11_217
*270 FILLER_0_11_223
*271 FILLER_0_11_225
*272 FILLER_0_11_237
*273 FILLER_0_11_249
*274 FILLER_0_11_261
*275 FILLER_0_11_27
*276 FILLER_0_11_273
*277 FILLER_0_11_279
*278 FILLER_0_11_281
*279 FILLER_0_11_293
*280 FILLER_0_11_3
*281 FILLER_0_11_305
*282 FILLER_0_11_317
*283 FILLER_0_11_329
*284 FILLER_0_11_39
*285 FILLER_0_11_51
*286 FILLER_0_11_55
*287 FILLER_0_11_57
*288 FILLER_0_11_69
*289 FILLER_0_11_81
*290 FILLER_0_11_93
*291 FILLER_0_12_109
*292 FILLER_0_12_121
*293 FILLER_0_12_133
*294 FILLER_0_12_139
*295 FILLER_0_12_141
*296 FILLER_0_12_15
*297 FILLER_0_12_153
*298 FILLER_0_12_165
*299 FILLER_0_12_177
*300 FILLER_0_12_189
*301 FILLER_0_12_195
*302 FILLER_0_12_197
*303 FILLER_0_12_209
*304 FILLER_0_12_221
*305 FILLER_0_12_233
*306 FILLER_0_12_245
*307 FILLER_0_12_251
*308 FILLER_0_12_253
*309 FILLER_0_12_265
*310 FILLER_0_12_27
*311 FILLER_0_12_277
*312 FILLER_0_12_289
*313 FILLER_0_12_29
*314 FILLER_0_12_3
*315 FILLER_0_12_301
*316 FILLER_0_12_307
*317 FILLER_0_12_309
*318 FILLER_0_12_321
*319 FILLER_0_12_333
*320 FILLER_0_12_41
*321 FILLER_0_12_53
*322 FILLER_0_12_65
*323 FILLER_0_12_77
*324 FILLER_0_12_83
*325 FILLER_0_12_85
*326 FILLER_0_12_97
*327 FILLER_0_13_105
*328 FILLER_0_13_111
*329 FILLER_0_13_113
*330 FILLER_0_13_125
*331 FILLER_0_13_137
*332 FILLER_0_13_149
*333 FILLER_0_13_15
*334 FILLER_0_13_161
*335 FILLER_0_13_167
*336 FILLER_0_13_169
*337 FILLER_0_13_181
*338 FILLER_0_13_193
*339 FILLER_0_13_205
*340 FILLER_0_13_217
*341 FILLER_0_13_223
*342 FILLER_0_13_225
*343 FILLER_0_13_237
*344 FILLER_0_13_249
*345 FILLER_0_13_261
*346 FILLER_0_13_27
*347 FILLER_0_13_273
*348 FILLER_0_13_279
*349 FILLER_0_13_281
*350 FILLER_0_13_293
*351 FILLER_0_13_3
*352 FILLER_0_13_305
*353 FILLER_0_13_317
*354 FILLER_0_13_329
*355 FILLER_0_13_39
*356 FILLER_0_13_51
*357 FILLER_0_13_55
*358 FILLER_0_13_57
*359 FILLER_0_13_69
*360 FILLER_0_13_81
*361 FILLER_0_13_93
*362 FILLER_0_14_109
*363 FILLER_0_14_121
*364 FILLER_0_14_133
*365 FILLER_0_14_139
*366 FILLER_0_14_141
*367 FILLER_0_14_15
*368 FILLER_0_14_153
*369 FILLER_0_14_165
*370 FILLER_0_14_177
*371 FILLER_0_14_189
*372 FILLER_0_14_195
*373 FILLER_0_14_197
*374 FILLER_0_14_209
*375 FILLER_0_14_221
*376 FILLER_0_14_233
*377 FILLER_0_14_245
*378 FILLER_0_14_251
*379 FILLER_0_14_253
*380 FILLER_0_14_265
*381 FILLER_0_14_27
*382 FILLER_0_14_277
*383 FILLER_0_14_289
*384 FILLER_0_14_29
*385 FILLER_0_14_3
*386 FILLER_0_14_301
*387 FILLER_0_14_307
*388 FILLER_0_14_309
*389 FILLER_0_14_321
*390 FILLER_0_14_333
*391 FILLER_0_14_41
*392 FILLER_0_14_53
*393 FILLER_0_14_65
*394 FILLER_0_14_77
*395 FILLER_0_14_83
*396 FILLER_0_14_85
*397 FILLER_0_14_97
*398 FILLER_0_15_105
*399 FILLER_0_15_111
*400 FILLER_0_15_113
*401 FILLER_0_15_125
*402 FILLER_0_15_137
*403 FILLER_0_15_149
*404 FILLER_0_15_15
*405 FILLER_0_15_161
*406 FILLER_0_15_167
*407 FILLER_0_15_169
*408 FILLER_0_15_181
*409 FILLER_0_15_193
*410 FILLER_0_15_205
*411 FILLER_0_15_217
*412 FILLER_0_15_223
*413 FILLER_0_15_225
*414 FILLER_0_15_237
*415 FILLER_0_15_249
*416 FILLER_0_15_261
*417 FILLER_0_15_27
*418 FILLER_0_15_273
*419 FILLER_0_15_279
*420 FILLER_0_15_281
*421 FILLER_0_15_293
*422 FILLER_0_15_3
*423 FILLER_0_15_305
*424 FILLER_0_15_317
*425 FILLER_0_15_329
*426 FILLER_0_15_39
*427 FILLER_0_15_51
*428 FILLER_0_15_55
*429 FILLER_0_15_57
*430 FILLER_0_15_69
*431 FILLER_0_15_81
*432 FILLER_0_15_93
*433 FILLER_0_16_109
*434 FILLER_0_16_121
*435 FILLER_0_16_133
*436 FILLER_0_16_139
*437 FILLER_0_16_141
*438 FILLER_0_16_15
*439 FILLER_0_16_153
*440 FILLER_0_16_165
*441 FILLER_0_16_177
*442 FILLER_0_16_189
*443 FILLER_0_16_195
*444 FILLER_0_16_197
*445 FILLER_0_16_209
*446 FILLER_0_16_221
*447 FILLER_0_16_233
*448 FILLER_0_16_245
*449 FILLER_0_16_251
*450 FILLER_0_16_253
*451 FILLER_0_16_265
*452 FILLER_0_16_27
*453 FILLER_0_16_277
*454 FILLER_0_16_289
*455 FILLER_0_16_29
*456 FILLER_0_16_3
*457 FILLER_0_16_301
*458 FILLER_0_16_307
*459 FILLER_0_16_309
*460 FILLER_0_16_321
*461 FILLER_0_16_333
*462 FILLER_0_16_41
*463 FILLER_0_16_53
*464 FILLER_0_16_65
*465 FILLER_0_16_77
*466 FILLER_0_16_83
*467 FILLER_0_16_85
*468 FILLER_0_16_97
*469 FILLER_0_17_105
*470 FILLER_0_17_111
*471 FILLER_0_17_113
*472 FILLER_0_17_125
*473 FILLER_0_17_137
*474 FILLER_0_17_149
*475 FILLER_0_17_15
*476 FILLER_0_17_161
*477 FILLER_0_17_167
*478 FILLER_0_17_169
*479 FILLER_0_17_181
*480 FILLER_0_17_193
*481 FILLER_0_17_205
*482 FILLER_0_17_217
*483 FILLER_0_17_223
*484 FILLER_0_17_225
*485 FILLER_0_17_237
*486 FILLER_0_17_249
*487 FILLER_0_17_261
*488 FILLER_0_17_27
*489 FILLER_0_17_273
*490 FILLER_0_17_279
*491 FILLER_0_17_281
*492 FILLER_0_17_293
*493 FILLER_0_17_3
*494 FILLER_0_17_305
*495 FILLER_0_17_317
*496 FILLER_0_17_329
*497 FILLER_0_17_39
*498 FILLER_0_17_51
*499 FILLER_0_17_55
*500 FILLER_0_17_57
*501 FILLER_0_17_69
*502 FILLER_0_17_81
*503 FILLER_0_17_93
*504 FILLER_0_18_109
*505 FILLER_0_18_121
*506 FILLER_0_18_133
*507 FILLER_0_18_139
*508 FILLER_0_18_141
*509 FILLER_0_18_15
*510 FILLER_0_18_153
*511 FILLER_0_18_165
*512 FILLER_0_18_177
*513 FILLER_0_18_189
*514 FILLER_0_18_195
*515 FILLER_0_18_197
*516 FILLER_0_18_209
*517 FILLER_0_18_221
*518 FILLER_0_18_233
*519 FILLER_0_18_245
*520 FILLER_0_18_251
*521 FILLER_0_18_253
*522 FILLER_0_18_265
*523 FILLER_0_18_27
*524 FILLER_0_18_277
*525 FILLER_0_18_289
*526 FILLER_0_18_29
*527 FILLER_0_18_3
*528 FILLER_0_18_301
*529 FILLER_0_18_307
*530 FILLER_0_18_309
*531 FILLER_0_18_321
*532 FILLER_0_18_333
*533 FILLER_0_18_41
*534 FILLER_0_18_53
*535 FILLER_0_18_65
*536 FILLER_0_18_77
*537 FILLER_0_18_83
*538 FILLER_0_18_85
*539 FILLER_0_18_97
*540 FILLER_0_19_105
*541 FILLER_0_19_111
*542 FILLER_0_19_113
*543 FILLER_0_19_125
*544 FILLER_0_19_137
*545 FILLER_0_19_149
*546 FILLER_0_19_15
*547 FILLER_0_19_161
*548 FILLER_0_19_167
*549 FILLER_0_19_169
*550 FILLER_0_19_181
*551 FILLER_0_19_193
*552 FILLER_0_19_205
*553 FILLER_0_19_217
*554 FILLER_0_19_223
*555 FILLER_0_19_225
*556 FILLER_0_19_237
*557 FILLER_0_19_249
*558 FILLER_0_19_261
*559 FILLER_0_19_27
*560 FILLER_0_19_273
*561 FILLER_0_19_279
*562 FILLER_0_19_281
*563 FILLER_0_19_293
*564 FILLER_0_19_3
*565 FILLER_0_19_305
*566 FILLER_0_19_317
*567 FILLER_0_19_329
*568 FILLER_0_19_39
*569 FILLER_0_19_51
*570 FILLER_0_19_55
*571 FILLER_0_19_57
*572 FILLER_0_19_69
*573 FILLER_0_19_81
*574 FILLER_0_19_93
*575 FILLER_0_1_105
*576 FILLER_0_1_111
*577 FILLER_0_1_113
*578 FILLER_0_1_125
*579 FILLER_0_1_137
*580 FILLER_0_1_149
*581 FILLER_0_1_15
*582 FILLER_0_1_161
*583 FILLER_0_1_167
*584 FILLER_0_1_169
*585 FILLER_0_1_181
*586 FILLER_0_1_193
*587 FILLER_0_1_205
*588 FILLER_0_1_217
*589 FILLER_0_1_223
*590 FILLER_0_1_225
*591 FILLER_0_1_237
*592 FILLER_0_1_249
*593 FILLER_0_1_261
*594 FILLER_0_1_27
*595 FILLER_0_1_273
*596 FILLER_0_1_279
*597 FILLER_0_1_281
*598 FILLER_0_1_293
*599 FILLER_0_1_3
*600 FILLER_0_1_305
*601 FILLER_0_1_317
*602 FILLER_0_1_329
*603 FILLER_0_1_39
*604 FILLER_0_1_51
*605 FILLER_0_1_55
*606 FILLER_0_1_57
*607 FILLER_0_1_69
*608 FILLER_0_1_81
*609 FILLER_0_1_93
*610 FILLER_0_20_109
*611 FILLER_0_20_121
*612 FILLER_0_20_133
*613 FILLER_0_20_139
*614 FILLER_0_20_141
*615 FILLER_0_20_15
*616 FILLER_0_20_153
*617 FILLER_0_20_165
*618 FILLER_0_20_177
*619 FILLER_0_20_189
*620 FILLER_0_20_195
*621 FILLER_0_20_197
*622 FILLER_0_20_209
*623 FILLER_0_20_221
*624 FILLER_0_20_233
*625 FILLER_0_20_245
*626 FILLER_0_20_251
*627 FILLER_0_20_253
*628 FILLER_0_20_265
*629 FILLER_0_20_27
*630 FILLER_0_20_277
*631 FILLER_0_20_289
*632 FILLER_0_20_29
*633 FILLER_0_20_3
*634 FILLER_0_20_301
*635 FILLER_0_20_307
*636 FILLER_0_20_309
*637 FILLER_0_20_321
*638 FILLER_0_20_333
*639 FILLER_0_20_41
*640 FILLER_0_20_53
*641 FILLER_0_20_65
*642 FILLER_0_20_77
*643 FILLER_0_20_83
*644 FILLER_0_20_85
*645 FILLER_0_20_97
*646 FILLER_0_21_105
*647 FILLER_0_21_111
*648 FILLER_0_21_113
*649 FILLER_0_21_125
*650 FILLER_0_21_137
*651 FILLER_0_21_149
*652 FILLER_0_21_15
*653 FILLER_0_21_161
*654 FILLER_0_21_167
*655 FILLER_0_21_169
*656 FILLER_0_21_181
*657 FILLER_0_21_193
*658 FILLER_0_21_205
*659 FILLER_0_21_217
*660 FILLER_0_21_223
*661 FILLER_0_21_225
*662 FILLER_0_21_237
*663 FILLER_0_21_249
*664 FILLER_0_21_261
*665 FILLER_0_21_27
*666 FILLER_0_21_273
*667 FILLER_0_21_279
*668 FILLER_0_21_281
*669 FILLER_0_21_293
*670 FILLER_0_21_3
*671 FILLER_0_21_305
*672 FILLER_0_21_317
*673 FILLER_0_21_329
*674 FILLER_0_21_39
*675 FILLER_0_21_51
*676 FILLER_0_21_55
*677 FILLER_0_21_57
*678 FILLER_0_21_69
*679 FILLER_0_21_81
*680 FILLER_0_21_93
*681 FILLER_0_22_109
*682 FILLER_0_22_121
*683 FILLER_0_22_133
*684 FILLER_0_22_139
*685 FILLER_0_22_141
*686 FILLER_0_22_15
*687 FILLER_0_22_153
*688 FILLER_0_22_165
*689 FILLER_0_22_177
*690 FILLER_0_22_189
*691 FILLER_0_22_195
*692 FILLER_0_22_197
*693 FILLER_0_22_209
*694 FILLER_0_22_221
*695 FILLER_0_22_233
*696 FILLER_0_22_245
*697 FILLER_0_22_251
*698 FILLER_0_22_253
*699 FILLER_0_22_265
*700 FILLER_0_22_27
*701 FILLER_0_22_277
*702 FILLER_0_22_289
*703 FILLER_0_22_29
*704 FILLER_0_22_3
*705 FILLER_0_22_301
*706 FILLER_0_22_307
*707 FILLER_0_22_309
*708 FILLER_0_22_321
*709 FILLER_0_22_333
*710 FILLER_0_22_41
*711 FILLER_0_22_53
*712 FILLER_0_22_65
*713 FILLER_0_22_77
*714 FILLER_0_22_83
*715 FILLER_0_22_85
*716 FILLER_0_22_97
*717 FILLER_0_23_105
*718 FILLER_0_23_111
*719 FILLER_0_23_113
*720 FILLER_0_23_125
*721 FILLER_0_23_137
*722 FILLER_0_23_149
*723 FILLER_0_23_15
*724 FILLER_0_23_161
*725 FILLER_0_23_167
*726 FILLER_0_23_169
*727 FILLER_0_23_181
*728 FILLER_0_23_193
*729 FILLER_0_23_205
*730 FILLER_0_23_217
*731 FILLER_0_23_223
*732 FILLER_0_23_225
*733 FILLER_0_23_237
*734 FILLER_0_23_249
*735 FILLER_0_23_261
*736 FILLER_0_23_27
*737 FILLER_0_23_273
*738 FILLER_0_23_279
*739 FILLER_0_23_281
*740 FILLER_0_23_293
*741 FILLER_0_23_3
*742 FILLER_0_23_305
*743 FILLER_0_23_317
*744 FILLER_0_23_329
*745 FILLER_0_23_39
*746 FILLER_0_23_51
*747 FILLER_0_23_55
*748 FILLER_0_23_57
*749 FILLER_0_23_69
*750 FILLER_0_23_81
*751 FILLER_0_23_93
*752 FILLER_0_24_109
*753 FILLER_0_24_121
*754 FILLER_0_24_133
*755 FILLER_0_24_139
*756 FILLER_0_24_141
*757 FILLER_0_24_15
*758 FILLER_0_24_153
*759 FILLER_0_24_165
*760 FILLER_0_24_177
*761 FILLER_0_24_189
*762 FILLER_0_24_195
*763 FILLER_0_24_197
*764 FILLER_0_24_209
*765 FILLER_0_24_221
*766 FILLER_0_24_233
*767 FILLER_0_24_245
*768 FILLER_0_24_251
*769 FILLER_0_24_253
*770 FILLER_0_24_265
*771 FILLER_0_24_27
*772 FILLER_0_24_277
*773 FILLER_0_24_289
*774 FILLER_0_24_29
*775 FILLER_0_24_3
*776 FILLER_0_24_301
*777 FILLER_0_24_307
*778 FILLER_0_24_309
*779 FILLER_0_24_321
*780 FILLER_0_24_333
*781 FILLER_0_24_41
*782 FILLER_0_24_53
*783 FILLER_0_24_65
*784 FILLER_0_24_77
*785 FILLER_0_24_83
*786 FILLER_0_24_85
*787 FILLER_0_24_97
*788 FILLER_0_25_105
*789 FILLER_0_25_111
*790 FILLER_0_25_113
*791 FILLER_0_25_125
*792 FILLER_0_25_137
*793 FILLER_0_25_149
*794 FILLER_0_25_15
*795 FILLER_0_25_161
*796 FILLER_0_25_167
*797 FILLER_0_25_169
*798 FILLER_0_25_181
*799 FILLER_0_25_193
*800 FILLER_0_25_205
*801 FILLER_0_25_217
*802 FILLER_0_25_223
*803 FILLER_0_25_225
*804 FILLER_0_25_237
*805 FILLER_0_25_249
*806 FILLER_0_25_261
*807 FILLER_0_25_27
*808 FILLER_0_25_273
*809 FILLER_0_25_279
*810 FILLER_0_25_281
*811 FILLER_0_25_293
*812 FILLER_0_25_3
*813 FILLER_0_25_305
*814 FILLER_0_25_317
*815 FILLER_0_25_329
*816 FILLER_0_25_39
*817 FILLER_0_25_51
*818 FILLER_0_25_55
*819 FILLER_0_25_57
*820 FILLER_0_25_69
*821 FILLER_0_25_81
*822 FILLER_0_25_93
*823 FILLER_0_26_109
*824 FILLER_0_26_121
*825 FILLER_0_26_133
*826 FILLER_0_26_139
*827 FILLER_0_26_141
*828 FILLER_0_26_15
*829 FILLER_0_26_153
*830 FILLER_0_26_165
*831 FILLER_0_26_177
*832 FILLER_0_26_189
*833 FILLER_0_26_195
*834 FILLER_0_26_197
*835 FILLER_0_26_209
*836 FILLER_0_26_221
*837 FILLER_0_26_233
*838 FILLER_0_26_245
*839 FILLER_0_26_251
*840 FILLER_0_26_253
*841 FILLER_0_26_265
*842 FILLER_0_26_27
*843 FILLER_0_26_277
*844 FILLER_0_26_289
*845 FILLER_0_26_29
*846 FILLER_0_26_3
*847 FILLER_0_26_301
*848 FILLER_0_26_307
*849 FILLER_0_26_309
*850 FILLER_0_26_321
*851 FILLER_0_26_333
*852 FILLER_0_26_41
*853 FILLER_0_26_53
*854 FILLER_0_26_65
*855 FILLER_0_26_77
*856 FILLER_0_26_83
*857 FILLER_0_26_85
*858 FILLER_0_26_97
*859 FILLER_0_27_105
*860 FILLER_0_27_111
*861 FILLER_0_27_113
*862 FILLER_0_27_125
*863 FILLER_0_27_137
*864 FILLER_0_27_149
*865 FILLER_0_27_15
*866 FILLER_0_27_161
*867 FILLER_0_27_167
*868 FILLER_0_27_169
*869 FILLER_0_27_181
*870 FILLER_0_27_193
*871 FILLER_0_27_205
*872 FILLER_0_27_217
*873 FILLER_0_27_223
*874 FILLER_0_27_225
*875 FILLER_0_27_237
*876 FILLER_0_27_249
*877 FILLER_0_27_261
*878 FILLER_0_27_27
*879 FILLER_0_27_273
*880 FILLER_0_27_279
*881 FILLER_0_27_281
*882 FILLER_0_27_293
*883 FILLER_0_27_3
*884 FILLER_0_27_305
*885 FILLER_0_27_317
*886 FILLER_0_27_329
*887 FILLER_0_27_39
*888 FILLER_0_27_51
*889 FILLER_0_27_55
*890 FILLER_0_27_57
*891 FILLER_0_27_69
*892 FILLER_0_27_81
*893 FILLER_0_27_93
*894 FILLER_0_28_109
*895 FILLER_0_28_121
*896 FILLER_0_28_133
*897 FILLER_0_28_139
*898 FILLER_0_28_141
*899 FILLER_0_28_15
*900 FILLER_0_28_153
*901 FILLER_0_28_165
*902 FILLER_0_28_177
*903 FILLER_0_28_189
*904 FILLER_0_28_195
*905 FILLER_0_28_197
*906 FILLER_0_28_209
*907 FILLER_0_28_221
*908 FILLER_0_28_233
*909 FILLER_0_28_245
*910 FILLER_0_28_251
*911 FILLER_0_28_253
*912 FILLER_0_28_265
*913 FILLER_0_28_27
*914 FILLER_0_28_277
*915 FILLER_0_28_289
*916 FILLER_0_28_29
*917 FILLER_0_28_297
*918 FILLER_0_28_3
*919 FILLER_0_28_301
*920 FILLER_0_28_307
*921 FILLER_0_28_309
*922 FILLER_0_28_321
*923 FILLER_0_28_333
*924 FILLER_0_28_41
*925 FILLER_0_28_53
*926 FILLER_0_28_65
*927 FILLER_0_28_77
*928 FILLER_0_28_83
*929 FILLER_0_28_85
*930 FILLER_0_28_97
*931 FILLER_0_29_105
*932 FILLER_0_29_111
*933 FILLER_0_29_113
*934 FILLER_0_29_125
*935 FILLER_0_29_137
*936 FILLER_0_29_149
*937 FILLER_0_29_15
*938 FILLER_0_29_161
*939 FILLER_0_29_167
*940 FILLER_0_29_169
*941 FILLER_0_29_181
*942 FILLER_0_29_193
*943 FILLER_0_29_205
*944 FILLER_0_29_217
*945 FILLER_0_29_223
*946 FILLER_0_29_225
*947 FILLER_0_29_237
*948 FILLER_0_29_249
*949 FILLER_0_29_261
*950 FILLER_0_29_265
*951 FILLER_0_29_269
*952 FILLER_0_29_27
*953 FILLER_0_29_277
*954 FILLER_0_29_287
*955 FILLER_0_29_3
*956 FILLER_0_29_314
*957 FILLER_0_29_326
*958 FILLER_0_29_334
*959 FILLER_0_29_39
*960 FILLER_0_29_51
*961 FILLER_0_29_55
*962 FILLER_0_29_57
*963 FILLER_0_29_69
*964 FILLER_0_29_81
*965 FILLER_0_29_93
*966 FILLER_0_2_109
*967 FILLER_0_2_121
*968 FILLER_0_2_133
*969 FILLER_0_2_139
*970 FILLER_0_2_141
*971 FILLER_0_2_15
*972 FILLER_0_2_153
*973 FILLER_0_2_165
*974 FILLER_0_2_177
*975 FILLER_0_2_189
*976 FILLER_0_2_195
*977 FILLER_0_2_197
*978 FILLER_0_2_209
*979 FILLER_0_2_221
*980 FILLER_0_2_233
*981 FILLER_0_2_245
*982 FILLER_0_2_251
*983 FILLER_0_2_253
*984 FILLER_0_2_265
*985 FILLER_0_2_27
*986 FILLER_0_2_277
*987 FILLER_0_2_289
*988 FILLER_0_2_29
*989 FILLER_0_2_3
*990 FILLER_0_2_301
*991 FILLER_0_2_307
*992 FILLER_0_2_309
*993 FILLER_0_2_321
*994 FILLER_0_2_333
*995 FILLER_0_2_41
*996 FILLER_0_2_53
*997 FILLER_0_2_65
*998 FILLER_0_2_77
*999 FILLER_0_2_83
*1000 FILLER_0_2_85
*1001 FILLER_0_2_97
*1002 FILLER_0_30_109
*1003 FILLER_0_30_121
*1004 FILLER_0_30_133
*1005 FILLER_0_30_139
*1006 FILLER_0_30_141
*1007 FILLER_0_30_15
*1008 FILLER_0_30_153
*1009 FILLER_0_30_165
*1010 FILLER_0_30_177
*1011 FILLER_0_30_189
*1012 FILLER_0_30_195
*1013 FILLER_0_30_197
*1014 FILLER_0_30_209
*1015 FILLER_0_30_221
*1016 FILLER_0_30_245
*1017 FILLER_0_30_251
*1018 FILLER_0_30_253
*1019 FILLER_0_30_27
*1020 FILLER_0_30_29
*1021 FILLER_0_30_295
*1022 FILLER_0_30_3
*1023 FILLER_0_30_307
*1024 FILLER_0_30_315
*1025 FILLER_0_30_323
*1026 FILLER_0_30_334
*1027 FILLER_0_30_41
*1028 FILLER_0_30_53
*1029 FILLER_0_30_65
*1030 FILLER_0_30_77
*1031 FILLER_0_30_83
*1032 FILLER_0_30_85
*1033 FILLER_0_30_97
*1034 FILLER_0_31_105
*1035 FILLER_0_31_111
*1036 FILLER_0_31_113
*1037 FILLER_0_31_125
*1038 FILLER_0_31_137
*1039 FILLER_0_31_149
*1040 FILLER_0_31_15
*1041 FILLER_0_31_155
*1042 FILLER_0_31_161
*1043 FILLER_0_31_167
*1044 FILLER_0_31_169
*1045 FILLER_0_31_181
*1046 FILLER_0_31_203
*1047 FILLER_0_31_215
*1048 FILLER_0_31_223
*1049 FILLER_0_31_27
*1050 FILLER_0_31_279
*1051 FILLER_0_31_286
*1052 FILLER_0_31_3
*1053 FILLER_0_31_324
*1054 FILLER_0_31_334
*1055 FILLER_0_31_39
*1056 FILLER_0_31_51
*1057 FILLER_0_31_55
*1058 FILLER_0_31_57
*1059 FILLER_0_31_69
*1060 FILLER_0_31_81
*1061 FILLER_0_31_93
*1062 FILLER_0_32_109
*1063 FILLER_0_32_117
*1064 FILLER_0_32_134
*1065 FILLER_0_32_15
*1066 FILLER_0_32_172
*1067 FILLER_0_32_184
*1068 FILLER_0_32_195
*1069 FILLER_0_32_207
*1070 FILLER_0_32_219
*1071 FILLER_0_32_223
*1072 FILLER_0_32_250
*1073 FILLER_0_32_253
*1074 FILLER_0_32_27
*1075 FILLER_0_32_281
*1076 FILLER_0_32_29
*1077 FILLER_0_32_293
*1078 FILLER_0_32_297
*1079 FILLER_0_32_3
*1080 FILLER_0_32_307
*1081 FILLER_0_32_309
*1082 FILLER_0_32_41
*1083 FILLER_0_32_53
*1084 FILLER_0_32_65
*1085 FILLER_0_32_77
*1086 FILLER_0_32_83
*1087 FILLER_0_32_85
*1088 FILLER_0_32_97
*1089 FILLER_0_33_105
*1090 FILLER_0_33_111
*1091 FILLER_0_33_146
*1092 FILLER_0_33_15
*1093 FILLER_0_33_167
*1094 FILLER_0_33_180
*1095 FILLER_0_33_222
*1096 FILLER_0_33_225
*1097 FILLER_0_33_233
*1098 FILLER_0_33_247
*1099 FILLER_0_33_259
*1100 FILLER_0_33_263
*1101 FILLER_0_33_27
*1102 FILLER_0_33_287
*1103 FILLER_0_33_299
*1104 FILLER_0_33_3
*1105 FILLER_0_33_39
*1106 FILLER_0_33_51
*1107 FILLER_0_33_55
*1108 FILLER_0_33_57
*1109 FILLER_0_33_69
*1110 FILLER_0_33_81
*1111 FILLER_0_33_93
*1112 FILLER_0_34_112
*1113 FILLER_0_34_139
*1114 FILLER_0_34_15
*1115 FILLER_0_34_170
*1116 FILLER_0_34_213
*1117 FILLER_0_34_249
*1118 FILLER_0_34_253
*1119 FILLER_0_34_265
*1120 FILLER_0_34_27
*1121 FILLER_0_34_288
*1122 FILLER_0_34_29
*1123 FILLER_0_34_3
*1124 FILLER_0_34_300
*1125 FILLER_0_34_309
*1126 FILLER_0_34_41
*1127 FILLER_0_34_53
*1128 FILLER_0_34_65
*1129 FILLER_0_34_77
*1130 FILLER_0_34_83
*1131 FILLER_0_34_85
*1132 FILLER_0_34_97
*1133 FILLER_0_35_124
*1134 FILLER_0_35_15
*1135 FILLER_0_35_177
*1136 FILLER_0_35_189
*1137 FILLER_0_35_201
*1138 FILLER_0_35_213
*1139 FILLER_0_35_217
*1140 FILLER_0_35_225
*1141 FILLER_0_35_257
*1142 FILLER_0_35_27
*1143 FILLER_0_35_287
*1144 FILLER_0_35_299
*1145 FILLER_0_35_3
*1146 FILLER_0_35_308
*1147 FILLER_0_35_39
*1148 FILLER_0_35_51
*1149 FILLER_0_35_55
*1150 FILLER_0_35_57
*1151 FILLER_0_35_69
*1152 FILLER_0_35_81
*1153 FILLER_0_35_93
*1154 FILLER_0_36_109
*1155 FILLER_0_36_144
*1156 FILLER_0_36_15
*1157 FILLER_0_36_191
*1158 FILLER_0_36_195
*1159 FILLER_0_36_245
*1160 FILLER_0_36_251
*1161 FILLER_0_36_253
*1162 FILLER_0_36_27
*1163 FILLER_0_36_275
*1164 FILLER_0_36_284
*1165 FILLER_0_36_29
*1166 FILLER_0_36_293
*1167 FILLER_0_36_3
*1168 FILLER_0_36_41
*1169 FILLER_0_36_53
*1170 FILLER_0_36_65
*1171 FILLER_0_36_77
*1172 FILLER_0_36_83
*1173 FILLER_0_36_85
*1174 FILLER_0_36_97
*1175 FILLER_0_37_105
*1176 FILLER_0_37_111
*1177 FILLER_0_37_113
*1178 FILLER_0_37_118
*1179 FILLER_0_37_15
*1180 FILLER_0_37_169
*1181 FILLER_0_37_173
*1182 FILLER_0_37_197
*1183 FILLER_0_37_201
*1184 FILLER_0_37_222
*1185 FILLER_0_37_225
*1186 FILLER_0_37_229
*1187 FILLER_0_37_27
*1188 FILLER_0_37_270
*1189 FILLER_0_37_279
*1190 FILLER_0_37_284
*1191 FILLER_0_37_3
*1192 FILLER_0_37_39
*1193 FILLER_0_37_51
*1194 FILLER_0_37_55
*1195 FILLER_0_37_57
*1196 FILLER_0_37_69
*1197 FILLER_0_37_81
*1198 FILLER_0_37_93
*1199 FILLER_0_38_10
*1200 FILLER_0_38_102
*1201 FILLER_0_38_106
*1202 FILLER_0_38_110
*1203 FILLER_0_38_139
*1204 FILLER_0_38_14
*1205 FILLER_0_38_141
*1206 FILLER_0_38_153
*1207 FILLER_0_38_165
*1208 FILLER_0_38_175
*1209 FILLER_0_38_18
*1210 FILLER_0_38_195
*1211 FILLER_0_38_197
*1212 FILLER_0_38_22
*1213 FILLER_0_38_223
*1214 FILLER_0_38_225
*1215 FILLER_0_38_247
*1216 FILLER_0_38_253
*1217 FILLER_0_38_278
*1218 FILLER_0_38_307
*1219 FILLER_0_38_32
*1220 FILLER_0_38_332
*1221 FILLER_0_38_38
*1222 FILLER_0_38_42
*1223 FILLER_0_38_46
*1224 FILLER_0_38_50
*1225 FILLER_0_38_54
*1226 FILLER_0_38_57
*1227 FILLER_0_38_6
*1228 FILLER_0_38_62
*1229 FILLER_0_38_66
*1230 FILLER_0_38_70
*1231 FILLER_0_38_74
*1232 FILLER_0_38_78
*1233 FILLER_0_38_88
*1234 FILLER_0_38_94
*1235 FILLER_0_38_98
*1236 FILLER_0_3_105
*1237 FILLER_0_3_111
*1238 FILLER_0_3_113
*1239 FILLER_0_3_125
*1240 FILLER_0_3_137
*1241 FILLER_0_3_149
*1242 FILLER_0_3_15
*1243 FILLER_0_3_161
*1244 FILLER_0_3_167
*1245 FILLER_0_3_169
*1246 FILLER_0_3_181
*1247 FILLER_0_3_193
*1248 FILLER_0_3_205
*1249 FILLER_0_3_217
*1250 FILLER_0_3_223
*1251 FILLER_0_3_225
*1252 FILLER_0_3_237
*1253 FILLER_0_3_249
*1254 FILLER_0_3_261
*1255 FILLER_0_3_27
*1256 FILLER_0_3_273
*1257 FILLER_0_3_279
*1258 FILLER_0_3_281
*1259 FILLER_0_3_293
*1260 FILLER_0_3_3
*1261 FILLER_0_3_305
*1262 FILLER_0_3_317
*1263 FILLER_0_3_329
*1264 FILLER_0_3_39
*1265 FILLER_0_3_51
*1266 FILLER_0_3_55
*1267 FILLER_0_3_57
*1268 FILLER_0_3_69
*1269 FILLER_0_3_81
*1270 FILLER_0_3_93
*1271 FILLER_0_4_109
*1272 FILLER_0_4_121
*1273 FILLER_0_4_133
*1274 FILLER_0_4_139
*1275 FILLER_0_4_141
*1276 FILLER_0_4_15
*1277 FILLER_0_4_153
*1278 FILLER_0_4_165
*1279 FILLER_0_4_177
*1280 FILLER_0_4_189
*1281 FILLER_0_4_195
*1282 FILLER_0_4_197
*1283 FILLER_0_4_209
*1284 FILLER_0_4_221
*1285 FILLER_0_4_233
*1286 FILLER_0_4_245
*1287 FILLER_0_4_251
*1288 FILLER_0_4_253
*1289 FILLER_0_4_265
*1290 FILLER_0_4_27
*1291 FILLER_0_4_277
*1292 FILLER_0_4_289
*1293 FILLER_0_4_29
*1294 FILLER_0_4_3
*1295 FILLER_0_4_301
*1296 FILLER_0_4_307
*1297 FILLER_0_4_309
*1298 FILLER_0_4_321
*1299 FILLER_0_4_333
*1300 FILLER_0_4_41
*1301 FILLER_0_4_53
*1302 FILLER_0_4_65
*1303 FILLER_0_4_77
*1304 FILLER_0_4_83
*1305 FILLER_0_4_85
*1306 FILLER_0_4_97
*1307 FILLER_0_5_105
*1308 FILLER_0_5_111
*1309 FILLER_0_5_113
*1310 FILLER_0_5_125
*1311 FILLER_0_5_137
*1312 FILLER_0_5_149
*1313 FILLER_0_5_15
*1314 FILLER_0_5_161
*1315 FILLER_0_5_167
*1316 FILLER_0_5_169
*1317 FILLER_0_5_181
*1318 FILLER_0_5_193
*1319 FILLER_0_5_205
*1320 FILLER_0_5_217
*1321 FILLER_0_5_223
*1322 FILLER_0_5_225
*1323 FILLER_0_5_237
*1324 FILLER_0_5_249
*1325 FILLER_0_5_261
*1326 FILLER_0_5_27
*1327 FILLER_0_5_273
*1328 FILLER_0_5_279
*1329 FILLER_0_5_281
*1330 FILLER_0_5_293
*1331 FILLER_0_5_3
*1332 FILLER_0_5_305
*1333 FILLER_0_5_317
*1334 FILLER_0_5_329
*1335 FILLER_0_5_39
*1336 FILLER_0_5_51
*1337 FILLER_0_5_55
*1338 FILLER_0_5_57
*1339 FILLER_0_5_69
*1340 FILLER_0_5_81
*1341 FILLER_0_5_93
*1342 FILLER_0_6_109
*1343 FILLER_0_6_121
*1344 FILLER_0_6_133
*1345 FILLER_0_6_139
*1346 FILLER_0_6_141
*1347 FILLER_0_6_15
*1348 FILLER_0_6_153
*1349 FILLER_0_6_165
*1350 FILLER_0_6_177
*1351 FILLER_0_6_189
*1352 FILLER_0_6_195
*1353 FILLER_0_6_197
*1354 FILLER_0_6_209
*1355 FILLER_0_6_221
*1356 FILLER_0_6_233
*1357 FILLER_0_6_245
*1358 FILLER_0_6_251
*1359 FILLER_0_6_253
*1360 FILLER_0_6_265
*1361 FILLER_0_6_27
*1362 FILLER_0_6_277
*1363 FILLER_0_6_289
*1364 FILLER_0_6_29
*1365 FILLER_0_6_3
*1366 FILLER_0_6_301
*1367 FILLER_0_6_307
*1368 FILLER_0_6_309
*1369 FILLER_0_6_321
*1370 FILLER_0_6_333
*1371 FILLER_0_6_41
*1372 FILLER_0_6_53
*1373 FILLER_0_6_65
*1374 FILLER_0_6_77
*1375 FILLER_0_6_83
*1376 FILLER_0_6_85
*1377 FILLER_0_6_97
*1378 FILLER_0_7_105
*1379 FILLER_0_7_111
*1380 FILLER_0_7_113
*1381 FILLER_0_7_125
*1382 FILLER_0_7_137
*1383 FILLER_0_7_149
*1384 FILLER_0_7_15
*1385 FILLER_0_7_161
*1386 FILLER_0_7_167
*1387 FILLER_0_7_169
*1388 FILLER_0_7_181
*1389 FILLER_0_7_193
*1390 FILLER_0_7_205
*1391 FILLER_0_7_217
*1392 FILLER_0_7_223
*1393 FILLER_0_7_225
*1394 FILLER_0_7_237
*1395 FILLER_0_7_249
*1396 FILLER_0_7_261
*1397 FILLER_0_7_27
*1398 FILLER_0_7_273
*1399 FILLER_0_7_279
*1400 FILLER_0_7_281
*1401 FILLER_0_7_293
*1402 FILLER_0_7_3
*1403 FILLER_0_7_305
*1404 FILLER_0_7_317
*1405 FILLER_0_7_329
*1406 FILLER_0_7_39
*1407 FILLER_0_7_51
*1408 FILLER_0_7_55
*1409 FILLER_0_7_57
*1410 FILLER_0_7_69
*1411 FILLER_0_7_81
*1412 FILLER_0_7_93
*1413 FILLER_0_8_109
*1414 FILLER_0_8_121
*1415 FILLER_0_8_133
*1416 FILLER_0_8_139
*1417 FILLER_0_8_141
*1418 FILLER_0_8_15
*1419 FILLER_0_8_153
*1420 FILLER_0_8_165
*1421 FILLER_0_8_177
*1422 FILLER_0_8_189
*1423 FILLER_0_8_195
*1424 FILLER_0_8_197
*1425 FILLER_0_8_209
*1426 FILLER_0_8_221
*1427 FILLER_0_8_233
*1428 FILLER_0_8_245
*1429 FILLER_0_8_251
*1430 FILLER_0_8_253
*1431 FILLER_0_8_265
*1432 FILLER_0_8_27
*1433 FILLER_0_8_277
*1434 FILLER_0_8_289
*1435 FILLER_0_8_29
*1436 FILLER_0_8_3
*1437 FILLER_0_8_301
*1438 FILLER_0_8_307
*1439 FILLER_0_8_309
*1440 FILLER_0_8_321
*1441 FILLER_0_8_333
*1442 FILLER_0_8_41
*1443 FILLER_0_8_53
*1444 FILLER_0_8_65
*1445 FILLER_0_8_77
*1446 FILLER_0_8_83
*1447 FILLER_0_8_85
*1448 FILLER_0_8_97
*1449 FILLER_0_9_105
*1450 FILLER_0_9_111
*1451 FILLER_0_9_113
*1452 FILLER_0_9_125
*1453 FILLER_0_9_137
*1454 FILLER_0_9_149
*1455 FILLER_0_9_15
*1456 FILLER_0_9_161
*1457 FILLER_0_9_167
*1458 FILLER_0_9_169
*1459 FILLER_0_9_181
*1460 FILLER_0_9_193
*1461 FILLER_0_9_205
*1462 FILLER_0_9_217
*1463 FILLER_0_9_223
*1464 FILLER_0_9_225
*1465 FILLER_0_9_237
*1466 FILLER_0_9_249
*1467 FILLER_0_9_261
*1468 FILLER_0_9_27
*1469 FILLER_0_9_273
*1470 FILLER_0_9_279
*1471 FILLER_0_9_281
*1472 FILLER_0_9_293
*1473 FILLER_0_9_3
*1474 FILLER_0_9_305
*1475 FILLER_0_9_317
*1476 FILLER_0_9_329
*1477 FILLER_0_9_39
*1478 FILLER_0_9_51
*1479 FILLER_0_9_55
*1480 FILLER_0_9_57
*1481 FILLER_0_9_69
*1482 FILLER_0_9_81
*1483 FILLER_0_9_93
*1484 PHY_EDGE_ROW_0_Left_39