*SPEF "ieee 1481-1999"
*DESIGN "tt_um_ejfogleman_smsdac"
*DATE "18:43:49 Thursday April 18, 2024"
*VENDOR "The OpenROAD Project"
*PROGRAM "OpenROAD"
*VERSION "0889970d1790a2617e69f253221b8bd7626e51dc"
*DESIGN_FLOW "NAME_SCOPE LOCAL" "PIN_CAP NONE"
*DIVIDER /
*DELIMITER :
*BUS_DELIMITER []
*T_UNIT 1 NS
*C_UNIT 1 PF
*R_UNIT 1 OHM
*L_UNIT 1 HENRY

*NAME_MAP
*3 clk
*4 ena
*5 rst_n
*6 ui_in[0]
*7 ui_in[1]
*8 ui_in[2]
*9 ui_in[3]
*10 ui_in[4]
*11 ui_in[5]
*12 ui_in[6]
*13 ui_in[7]
*14 uio_in[0]
*15 uio_in[1]
*16 uio_in[2]
*17 uio_in[3]
*18 uio_in[4]
*19 uio_in[5]
*20 uio_in[6]
*21 uio_in[7]
*22 net19
*23 net20
*24 net21
*25 net22
*26 net23
*27 net24
*28 net25
*29 net26
*30 net27
*31 net28
*32 net29
*33 net30
*34 net31
*35 net32
*36 net33
*37 uio_out[7]
*38 uo_out[0]
*39 uo_out[1]
*40 uo_out[2]
*41 uo_out[3]
*42 uo_out[4]
*43 uo_out[5]
*44 uo_out[6]
*45 uo_out[7]
*46 _000_
*47 _001_
*48 _002_
*49 _003_
*50 _004_
*51 _005_
*52 _006_
*53 _007_
*54 _008_
*55 _009_
*56 _010_
*57 _011_
*58 _012_
*59 _013_
*60 _014_
*61 _015_
*62 _016_
*63 _017_
*64 _018_
*65 _019_
*66 _020_
*67 _021_
*68 _022_
*69 _023_
*70 _024_
*71 _025_
*72 _026_
*73 _027_
*74 _028_
*75 _029_
*76 _030_
*77 _031_
*78 _032_
*79 _033_
*80 _034_
*81 _035_
*82 _036_
*83 _037_
*84 _038_
*85 _039_
*86 _040_
*87 _041_
*88 _042_
*89 _043_
*90 _044_
*91 _045_
*92 _046_
*93 _047_
*94 _048_
*95 _049_
*96 _050_
*97 _051_
*98 _052_
*99 _053_
*100 _054_
*101 _055_
*102 _056_
*103 _057_
*104 _058_
*105 _059_
*106 _060_
*107 _061_
*108 _062_
*109 _063_
*110 _064_
*111 _065_
*112 _066_
*113 _067_
*114 _068_
*115 _069_
*116 _070_
*117 _071_
*118 _072_
*119 _073_
*120 _074_
*121 _075_
*122 _076_
*123 _077_
*124 _078_
*125 _079_
*126 _080_
*127 _081_
*128 _082_
*129 _083_
*130 _084_
*131 _085_
*132 _086_
*133 _087_
*134 _088_
*135 _089_
*136 _090_
*137 _091_
*138 _092_
*139 _093_
*140 _094_
*141 _095_
*142 _096_
*143 clknet_0_clk
*144 clknet_2_0__leaf_clk
*145 clknet_2_1__leaf_clk
*146 clknet_2_2__leaf_clk
*147 clknet_2_3__leaf_clk
*148 net1
*149 net10
*150 net11
*151 net12
*152 net13
*153 net14
*154 net15
*155 net16
*156 net17
*157 net18
*158 net2
*159 net3
*160 net34
*161 net35
*162 net36
*163 net37
*164 net38
*165 net39
*166 net4
*167 net40
*168 net41
*169 net42
*170 net43
*171 net44
*172 net45
*173 net46
*174 net47
*175 net48
*176 net49
*177 net5
*178 net50
*179 net51
*180 net52
*181 net53
*182 net54
*183 net55
*184 net56
*185 net57
*186 net58
*187 net59
*188 net6
*189 net60
*190 net61
*191 net62
*192 net63
*193 net64
*194 net65
*195 net7
*196 net8
*197 net9
*198 u_top\.d_sync\[0\]
*199 u_top\.d_sync\[1\]
*200 u_top\.d_sync\[2\]
*201 u_top\.d_sync\[3\]
*202 u_top\.d_sync\[4\]
*203 u_top\.d_sync\[5\]
*204 u_top\.d_sync\[6\]
*205 u_top\.d_sync\[7\]
*206 u_top\.rst_b
*207 u_top\.u_dac\.u_s0\.q
*208 u_top\.u_dac\.u_s0\.q0
*209 u_top\.u_dac\.u_s0\.r
*210 u_top\.u_dac\.u_s1\.q
*211 u_top\.u_dac\.u_s1\.q0
*212 u_top\.u_dac\.u_s1\.r
*213 u_top\.u_dac\.u_s2\.q
*214 u_top\.u_dac\.u_s2\.q0
*215 u_top\.u_dac\.u_s2\.r
*216 u_top\.u_dac\.u_s3\.q
*217 u_top\.u_dac\.u_s3\.q0
*218 u_top\.u_dac\.u_s3\.r
*219 u_top\.u_dac\.u_s4\.q
*220 u_top\.u_dac\.u_s4\.q0
*221 u_top\.u_dac\.u_s4\.r
*222 u_top\.u_dac\.u_s4\.y0
*223 u_top\.u_dac\.u_s4\.y1
*224 u_top\.u_dac\.u_s5\.q
*225 u_top\.u_dac\.u_s5\.q0
*226 u_top\.u_dac\.u_s5\.r
*227 u_top\.u_dac\.u_s5\.y0
*228 u_top\.u_dac\.u_s5\.y1
*229 u_top\.u_dac\.u_s6\.q
*230 u_top\.u_dac\.u_s6\.q0
*231 u_top\.u_dac\.u_s6\.r
*232 u_top\.u_dac\.u_s6\.y0
*233 u_top\.u_dac\.u_s6\.y1
*234 u_top\.u_dac\.u_s6\.y_c
*235 u_top\.u_lfsr\.q\[0\]
*236 u_top\.u_lfsr\.q\[1\]
*237 u_top\.u_lfsr\.q\[2\]
*238 u_top\.u_sync\.q0\[0\]
*239 u_top\.u_sync\.q0\[1\]
*240 u_top\.u_sync\.q0\[2\]
*241 u_top\.u_sync\.q0\[3\]
*242 u_top\.u_sync\.q0\[4\]
*243 u_top\.u_sync\.q0\[5\]
*244 u_top\.u_sync\.q0\[6\]
*245 u_top\.u_sync\.q0\[7\]
*246 FILLER_0_0_109
*247 FILLER_0_0_113
*248 FILLER_0_0_125
*249 FILLER_0_0_137
*250 FILLER_0_0_141
*251 FILLER_0_0_15
*252 FILLER_0_0_153
*253 FILLER_0_0_165
*254 FILLER_0_0_169
*255 FILLER_0_0_181
*256 FILLER_0_0_193
*257 FILLER_0_0_197
*258 FILLER_0_0_209
*259 FILLER_0_0_221
*260 FILLER_0_0_225
*261 FILLER_0_0_237
*262 FILLER_0_0_249
*263 FILLER_0_0_253
*264 FILLER_0_0_265
*265 FILLER_0_0_27
*266 FILLER_0_0_277
*267 FILLER_0_0_281
*268 FILLER_0_0_29
*269 FILLER_0_0_293
*270 FILLER_0_0_3
*271 FILLER_0_0_305
*272 FILLER_0_0_309
*273 FILLER_0_0_321
*274 FILLER_0_0_333
*275 FILLER_0_0_41
*276 FILLER_0_0_53
*277 FILLER_0_0_57
*278 FILLER_0_0_69
*279 FILLER_0_0_81
*280 FILLER_0_0_85
*281 FILLER_0_0_97
*282 FILLER_0_10_109
*283 FILLER_0_10_121
*284 FILLER_0_10_133
*285 FILLER_0_10_139
*286 FILLER_0_10_141
*287 FILLER_0_10_15
*288 FILLER_0_10_153
*289 FILLER_0_10_165
*290 FILLER_0_10_177
*291 FILLER_0_10_189
*292 FILLER_0_10_195
*293 FILLER_0_10_197
*294 FILLER_0_10_209
*295 FILLER_0_10_221
*296 FILLER_0_10_233
*297 FILLER_0_10_245
*298 FILLER_0_10_251
*299 FILLER_0_10_253
*300 FILLER_0_10_265
*301 FILLER_0_10_27
*302 FILLER_0_10_277
*303 FILLER_0_10_289
*304 FILLER_0_10_29
*305 FILLER_0_10_3
*306 FILLER_0_10_301
*307 FILLER_0_10_307
*308 FILLER_0_10_309
*309 FILLER_0_10_321
*310 FILLER_0_10_333
*311 FILLER_0_10_41
*312 FILLER_0_10_53
*313 FILLER_0_10_65
*314 FILLER_0_10_77
*315 FILLER_0_10_83
*316 FILLER_0_10_85
*317 FILLER_0_10_97
*318 FILLER_0_11_105
*319 FILLER_0_11_111
*320 FILLER_0_11_113
*321 FILLER_0_11_125
*322 FILLER_0_11_137
*323 FILLER_0_11_149
*324 FILLER_0_11_15
*325 FILLER_0_11_161
*326 FILLER_0_11_167
*327 FILLER_0_11_169
*328 FILLER_0_11_181
*329 FILLER_0_11_193
*330 FILLER_0_11_205
*331 FILLER_0_11_217
*332 FILLER_0_11_223
*333 FILLER_0_11_225
*334 FILLER_0_11_237
*335 FILLER_0_11_249
*336 FILLER_0_11_261
*337 FILLER_0_11_27
*338 FILLER_0_11_273
*339 FILLER_0_11_279
*340 FILLER_0_11_281
*341 FILLER_0_11_293
*342 FILLER_0_11_3
*343 FILLER_0_11_305
*344 FILLER_0_11_317
*345 FILLER_0_11_329
*346 FILLER_0_11_39
*347 FILLER_0_11_51
*348 FILLER_0_11_55
*349 FILLER_0_11_57
*350 FILLER_0_11_69
*351 FILLER_0_11_81
*352 FILLER_0_11_93
*353 FILLER_0_12_109
*354 FILLER_0_12_121
*355 FILLER_0_12_133
*356 FILLER_0_12_139
*357 FILLER_0_12_141
*358 FILLER_0_12_15
*359 FILLER_0_12_153
*360 FILLER_0_12_165
*361 FILLER_0_12_177
*362 FILLER_0_12_189
*363 FILLER_0_12_195
*364 FILLER_0_12_197
*365 FILLER_0_12_209
*366 FILLER_0_12_221
*367 FILLER_0_12_233
*368 FILLER_0_12_245
*369 FILLER_0_12_251
*370 FILLER_0_12_253
*371 FILLER_0_12_265
*372 FILLER_0_12_27
*373 FILLER_0_12_277
*374 FILLER_0_12_289
*375 FILLER_0_12_29
*376 FILLER_0_12_3
*377 FILLER_0_12_301
*378 FILLER_0_12_307
*379 FILLER_0_12_309
*380 FILLER_0_12_321
*381 FILLER_0_12_333
*382 FILLER_0_12_41
*383 FILLER_0_12_53
*384 FILLER_0_12_65
*385 FILLER_0_12_77
*386 FILLER_0_12_83
*387 FILLER_0_12_85
*388 FILLER_0_12_97
*389 FILLER_0_13_105
*390 FILLER_0_13_111
*391 FILLER_0_13_113
*392 FILLER_0_13_125
*393 FILLER_0_13_137
*394 FILLER_0_13_149
*395 FILLER_0_13_15
*396 FILLER_0_13_161
*397 FILLER_0_13_167
*398 FILLER_0_13_169
*399 FILLER_0_13_181
*400 FILLER_0_13_193
*401 FILLER_0_13_205
*402 FILLER_0_13_217
*403 FILLER_0_13_223
*404 FILLER_0_13_225
*405 FILLER_0_13_237
*406 FILLER_0_13_249
*407 FILLER_0_13_261
*408 FILLER_0_13_27
*409 FILLER_0_13_273
*410 FILLER_0_13_279
*411 FILLER_0_13_281
*412 FILLER_0_13_293
*413 FILLER_0_13_3
*414 FILLER_0_13_305
*415 FILLER_0_13_317
*416 FILLER_0_13_329
*417 FILLER_0_13_39
*418 FILLER_0_13_51
*419 FILLER_0_13_55
*420 FILLER_0_13_57
*421 FILLER_0_13_69
*422 FILLER_0_13_81
*423 FILLER_0_13_93
*424 FILLER_0_14_109
*425 FILLER_0_14_121
*426 FILLER_0_14_133
*427 FILLER_0_14_139
*428 FILLER_0_14_141
*429 FILLER_0_14_15
*430 FILLER_0_14_153
*431 FILLER_0_14_165
*432 FILLER_0_14_177
*433 FILLER_0_14_189
*434 FILLER_0_14_195
*435 FILLER_0_14_197
*436 FILLER_0_14_209
*437 FILLER_0_14_221
*438 FILLER_0_14_233
*439 FILLER_0_14_245
*440 FILLER_0_14_251
*441 FILLER_0_14_253
*442 FILLER_0_14_265
*443 FILLER_0_14_27
*444 FILLER_0_14_277
*445 FILLER_0_14_289
*446 FILLER_0_14_29
*447 FILLER_0_14_3
*448 FILLER_0_14_301
*449 FILLER_0_14_307
*450 FILLER_0_14_309
*451 FILLER_0_14_321
*452 FILLER_0_14_333
*453 FILLER_0_14_41
*454 FILLER_0_14_53
*455 FILLER_0_14_65
*456 FILLER_0_14_77
*457 FILLER_0_14_83
*458 FILLER_0_14_85
*459 FILLER_0_14_97
*460 FILLER_0_15_105
*461 FILLER_0_15_111
*462 FILLER_0_15_113
*463 FILLER_0_15_125
*464 FILLER_0_15_137
*465 FILLER_0_15_149
*466 FILLER_0_15_15
*467 FILLER_0_15_161
*468 FILLER_0_15_167
*469 FILLER_0_15_169
*470 FILLER_0_15_181
*471 FILLER_0_15_193
*472 FILLER_0_15_205
*473 FILLER_0_15_217
*474 FILLER_0_15_223
*475 FILLER_0_15_225
*476 FILLER_0_15_237
*477 FILLER_0_15_249
*478 FILLER_0_15_261
*479 FILLER_0_15_27
*480 FILLER_0_15_273
*481 FILLER_0_15_279
*482 FILLER_0_15_281
*483 FILLER_0_15_293
*484 FILLER_0_15_3
*485 FILLER_0_15_305
*486 FILLER_0_15_317
*487 FILLER_0_15_329
*488 FILLER_0_15_39
*489 FILLER_0_15_51
*490 FILLER_0_15_55
*491 FILLER_0_15_57
*492 FILLER_0_15_69
*493 FILLER_0_15_81
*494 FILLER_0_15_93
*495 FILLER_0_16_109
*496 FILLER_0_16_121
*497 FILLER_0_16_133
*498 FILLER_0_16_139
*499 FILLER_0_16_141
*500 FILLER_0_16_15
*501 FILLER_0_16_153
*502 FILLER_0_16_165
*503 FILLER_0_16_177
*504 FILLER_0_16_189
*505 FILLER_0_16_195
*506 FILLER_0_16_197
*507 FILLER_0_16_209
*508 FILLER_0_16_221
*509 FILLER_0_16_233
*510 FILLER_0_16_245
*511 FILLER_0_16_251
*512 FILLER_0_16_253
*513 FILLER_0_16_265
*514 FILLER_0_16_27
*515 FILLER_0_16_277
*516 FILLER_0_16_289
*517 FILLER_0_16_29
*518 FILLER_0_16_3
*519 FILLER_0_16_301
*520 FILLER_0_16_307
*521 FILLER_0_16_309
*522 FILLER_0_16_321
*523 FILLER_0_16_333
*524 FILLER_0_16_41
*525 FILLER_0_16_53
*526 FILLER_0_16_65
*527 FILLER_0_16_77
*528 FILLER_0_16_83
*529 FILLER_0_16_85
*530 FILLER_0_16_97
*531 FILLER_0_17_105
*532 FILLER_0_17_111
*533 FILLER_0_17_113
*534 FILLER_0_17_125
*535 FILLER_0_17_137
*536 FILLER_0_17_149
*537 FILLER_0_17_15
*538 FILLER_0_17_161
*539 FILLER_0_17_167
*540 FILLER_0_17_169
*541 FILLER_0_17_181
*542 FILLER_0_17_193
*543 FILLER_0_17_205
*544 FILLER_0_17_217
*545 FILLER_0_17_223
*546 FILLER_0_17_225
*547 FILLER_0_17_237
*548 FILLER_0_17_249
*549 FILLER_0_17_261
*550 FILLER_0_17_27
*551 FILLER_0_17_273
*552 FILLER_0_17_279
*553 FILLER_0_17_281
*554 FILLER_0_17_293
*555 FILLER_0_17_3
*556 FILLER_0_17_305
*557 FILLER_0_17_317
*558 FILLER_0_17_329
*559 FILLER_0_17_39
*560 FILLER_0_17_51
*561 FILLER_0_17_55
*562 FILLER_0_17_57
*563 FILLER_0_17_69
*564 FILLER_0_17_81
*565 FILLER_0_17_93
*566 FILLER_0_18_109
*567 FILLER_0_18_121
*568 FILLER_0_18_133
*569 FILLER_0_18_139
*570 FILLER_0_18_141
*571 FILLER_0_18_15
*572 FILLER_0_18_153
*573 FILLER_0_18_165
*574 FILLER_0_18_177
*575 FILLER_0_18_189
*576 FILLER_0_18_195
*577 FILLER_0_18_197
*578 FILLER_0_18_209
*579 FILLER_0_18_221
*580 FILLER_0_18_233
*581 FILLER_0_18_245
*582 FILLER_0_18_251
*583 FILLER_0_18_253
*584 FILLER_0_18_265
*585 FILLER_0_18_27
*586 FILLER_0_18_277
*587 FILLER_0_18_289
*588 FILLER_0_18_29
*589 FILLER_0_18_3
*590 FILLER_0_18_301
*591 FILLER_0_18_307
*592 FILLER_0_18_309
*593 FILLER_0_18_321
*594 FILLER_0_18_333
*595 FILLER_0_18_41
*596 FILLER_0_18_53
*597 FILLER_0_18_65
*598 FILLER_0_18_77
*599 FILLER_0_18_83
*600 FILLER_0_18_85
*601 FILLER_0_18_97
*602 FILLER_0_19_105
*603 FILLER_0_19_111
*604 FILLER_0_19_113
*605 FILLER_0_19_125
*606 FILLER_0_19_137
*607 FILLER_0_19_149
*608 FILLER_0_19_15
*609 FILLER_0_19_161
*610 FILLER_0_19_167
*611 FILLER_0_19_169
*612 FILLER_0_19_181
*613 FILLER_0_19_193
*614 FILLER_0_19_205
*615 FILLER_0_19_217
*616 FILLER_0_19_223
*617 FILLER_0_19_225
*618 FILLER_0_19_237
*619 FILLER_0_19_249
*620 FILLER_0_19_261
*621 FILLER_0_19_27
*622 FILLER_0_19_273
*623 FILLER_0_19_279
*624 FILLER_0_19_281
*625 FILLER_0_19_293
*626 FILLER_0_19_3
*627 FILLER_0_19_305
*628 FILLER_0_19_317
*629 FILLER_0_19_329
*630 FILLER_0_19_39
*631 FILLER_0_19_51
*632 FILLER_0_19_55
*633 FILLER_0_19_57
*634 FILLER_0_19_69
*635 FILLER_0_19_81
*636 FILLER_0_19_93
*637 FILLER_0_1_105
*638 FILLER_0_1_111
*639 FILLER_0_1_113
*640 FILLER_0_1_125
*641 FILLER_0_1_137
*642 FILLER_0_1_149
*643 FILLER_0_1_15
*644 FILLER_0_1_161
*645 FILLER_0_1_167
*646 FILLER_0_1_169
*647 FILLER_0_1_181
*648 FILLER_0_1_193
*649 FILLER_0_1_205
*650 FILLER_0_1_217
*651 FILLER_0_1_223
*652 FILLER_0_1_225
*653 FILLER_0_1_237
*654 FILLER_0_1_249
*655 FILLER_0_1_261
*656 FILLER_0_1_27
*657 FILLER_0_1_273
*658 FILLER_0_1_279
*659 FILLER_0_1_281
*660 FILLER_0_1_293
*661 FILLER_0_1_3
*662 FILLER_0_1_305
*663 FILLER_0_1_317
*664 FILLER_0_1_329
*665 FILLER_0_1_39
*666 FILLER_0_1_51
*667 FILLER_0_1_55
*668 FILLER_0_1_57
*669 FILLER_0_1_69
*670 FILLER_0_1_81
*671 FILLER_0_1_93
*672 FILLER_0_20_109
*673 FILLER_0_20_121
*674 FILLER_0_20_133
*675 FILLER_0_20_139
*676 FILLER_0_20_141
*677 FILLER_0_20_15
*678 FILLER_0_20_153
*679 FILLER_0_20_165
*680 FILLER_0_20_177
*681 FILLER_0_20_189
*682 FILLER_0_20_195
*683 FILLER_0_20_197
*684 FILLER_0_20_209
*685 FILLER_0_20_221
*686 FILLER_0_20_233
*687 FILLER_0_20_245
*688 FILLER_0_20_251
*689 FILLER_0_20_253
*690 FILLER_0_20_265
*691 FILLER_0_20_27
*692 FILLER_0_20_277
*693 FILLER_0_20_289
*694 FILLER_0_20_29
*695 FILLER_0_20_3
*696 FILLER_0_20_301
*697 FILLER_0_20_307
*698 FILLER_0_20_309
*699 FILLER_0_20_321
*700 FILLER_0_20_333
*701 FILLER_0_20_41
*702 FILLER_0_20_53
*703 FILLER_0_20_65
*704 FILLER_0_20_77
*705 FILLER_0_20_83
*706 FILLER_0_20_85
*707 FILLER_0_20_97
*708 FILLER_0_21_105
*709 FILLER_0_21_111
*710 FILLER_0_21_113
*711 FILLER_0_21_125
*712 FILLER_0_21_137
*713 FILLER_0_21_149
*714 FILLER_0_21_15
*715 FILLER_0_21_161
*716 FILLER_0_21_167
*717 FILLER_0_21_169
*718 FILLER_0_21_181
*719 FILLER_0_21_193
*720 FILLER_0_21_205
*721 FILLER_0_21_217
*722 FILLER_0_21_223
*723 FILLER_0_21_225
*724 FILLER_0_21_237
*725 FILLER_0_21_249
*726 FILLER_0_21_261
*727 FILLER_0_21_27
*728 FILLER_0_21_273
*729 FILLER_0_21_279
*730 FILLER_0_21_281
*731 FILLER_0_21_293
*732 FILLER_0_21_3
*733 FILLER_0_21_305
*734 FILLER_0_21_317
*735 FILLER_0_21_329
*736 FILLER_0_21_39
*737 FILLER_0_21_51
*738 FILLER_0_21_55
*739 FILLER_0_21_57
*740 FILLER_0_21_69
*741 FILLER_0_21_81
*742 FILLER_0_21_93
*743 FILLER_0_22_109
*744 FILLER_0_22_121
*745 FILLER_0_22_133
*746 FILLER_0_22_139
*747 FILLER_0_22_141
*748 FILLER_0_22_15
*749 FILLER_0_22_153
*750 FILLER_0_22_165
*751 FILLER_0_22_177
*752 FILLER_0_22_189
*753 FILLER_0_22_195
*754 FILLER_0_22_197
*755 FILLER_0_22_209
*756 FILLER_0_22_221
*757 FILLER_0_22_233
*758 FILLER_0_22_245
*759 FILLER_0_22_251
*760 FILLER_0_22_253
*761 FILLER_0_22_265
*762 FILLER_0_22_27
*763 FILLER_0_22_277
*764 FILLER_0_22_289
*765 FILLER_0_22_29
*766 FILLER_0_22_3
*767 FILLER_0_22_301
*768 FILLER_0_22_307
*769 FILLER_0_22_309
*770 FILLER_0_22_321
*771 FILLER_0_22_333
*772 FILLER_0_22_41
*773 FILLER_0_22_53
*774 FILLER_0_22_65
*775 FILLER_0_22_77
*776 FILLER_0_22_83
*777 FILLER_0_22_85
*778 FILLER_0_22_97
*779 FILLER_0_23_105
*780 FILLER_0_23_111
*781 FILLER_0_23_113
*782 FILLER_0_23_125
*783 FILLER_0_23_137
*784 FILLER_0_23_149
*785 FILLER_0_23_15
*786 FILLER_0_23_161
*787 FILLER_0_23_167
*788 FILLER_0_23_169
*789 FILLER_0_23_181
*790 FILLER_0_23_193
*791 FILLER_0_23_205
*792 FILLER_0_23_217
*793 FILLER_0_23_223
*794 FILLER_0_23_225
*795 FILLER_0_23_237
*796 FILLER_0_23_249
*797 FILLER_0_23_261
*798 FILLER_0_23_27
*799 FILLER_0_23_273
*800 FILLER_0_23_279
*801 FILLER_0_23_281
*802 FILLER_0_23_293
*803 FILLER_0_23_3
*804 FILLER_0_23_305
*805 FILLER_0_23_317
*806 FILLER_0_23_329
*807 FILLER_0_23_39
*808 FILLER_0_23_51
*809 FILLER_0_23_55
*810 FILLER_0_23_57
*811 FILLER_0_23_69
*812 FILLER_0_23_81
*813 FILLER_0_23_93
*814 FILLER_0_24_109
*815 FILLER_0_24_121
*816 FILLER_0_24_133
*817 FILLER_0_24_139
*818 FILLER_0_24_141
*819 FILLER_0_24_15
*820 FILLER_0_24_153
*821 FILLER_0_24_165
*822 FILLER_0_24_177
*823 FILLER_0_24_189
*824 FILLER_0_24_195
*825 FILLER_0_24_197
*826 FILLER_0_24_209
*827 FILLER_0_24_221
*828 FILLER_0_24_233
*829 FILLER_0_24_245
*830 FILLER_0_24_251
*831 FILLER_0_24_253
*832 FILLER_0_24_265
*833 FILLER_0_24_27
*834 FILLER_0_24_277
*835 FILLER_0_24_289
*836 FILLER_0_24_29
*837 FILLER_0_24_3
*838 FILLER_0_24_301
*839 FILLER_0_24_307
*840 FILLER_0_24_309
*841 FILLER_0_24_321
*842 FILLER_0_24_333
*843 FILLER_0_24_41
*844 FILLER_0_24_53
*845 FILLER_0_24_65
*846 FILLER_0_24_77
*847 FILLER_0_24_83
*848 FILLER_0_24_85
*849 FILLER_0_24_97
*850 FILLER_0_25_105
*851 FILLER_0_25_111
*852 FILLER_0_25_113
*853 FILLER_0_25_125
*854 FILLER_0_25_137
*855 FILLER_0_25_149
*856 FILLER_0_25_15
*857 FILLER_0_25_161
*858 FILLER_0_25_167
*859 FILLER_0_25_169
*860 FILLER_0_25_181
*861 FILLER_0_25_193
*862 FILLER_0_25_205
*863 FILLER_0_25_217
*864 FILLER_0_25_223
*865 FILLER_0_25_225
*866 FILLER_0_25_240
*867 FILLER_0_25_252
*868 FILLER_0_25_264
*869 FILLER_0_25_27
*870 FILLER_0_25_276
*871 FILLER_0_25_281
*872 FILLER_0_25_293
*873 FILLER_0_25_3
*874 FILLER_0_25_305
*875 FILLER_0_25_317
*876 FILLER_0_25_329
*877 FILLER_0_25_39
*878 FILLER_0_25_51
*879 FILLER_0_25_55
*880 FILLER_0_25_57
*881 FILLER_0_25_69
*882 FILLER_0_25_81
*883 FILLER_0_25_93
*884 FILLER_0_26_109
*885 FILLER_0_26_121
*886 FILLER_0_26_133
*887 FILLER_0_26_139
*888 FILLER_0_26_141
*889 FILLER_0_26_15
*890 FILLER_0_26_153
*891 FILLER_0_26_165
*892 FILLER_0_26_177
*893 FILLER_0_26_185
*894 FILLER_0_26_214
*895 FILLER_0_26_226
*896 FILLER_0_26_237
*897 FILLER_0_26_247
*898 FILLER_0_26_251
*899 FILLER_0_26_253
*900 FILLER_0_26_27
*901 FILLER_0_26_285
*902 FILLER_0_26_29
*903 FILLER_0_26_297
*904 FILLER_0_26_3
*905 FILLER_0_26_305
*906 FILLER_0_26_329
*907 FILLER_0_26_41
*908 FILLER_0_26_53
*909 FILLER_0_26_65
*910 FILLER_0_26_77
*911 FILLER_0_26_83
*912 FILLER_0_26_85
*913 FILLER_0_26_97
*914 FILLER_0_27_105
*915 FILLER_0_27_111
*916 FILLER_0_27_113
*917 FILLER_0_27_125
*918 FILLER_0_27_137
*919 FILLER_0_27_149
*920 FILLER_0_27_15
*921 FILLER_0_27_161
*922 FILLER_0_27_167
*923 FILLER_0_27_169
*924 FILLER_0_27_177
*925 FILLER_0_27_220
*926 FILLER_0_27_267
*927 FILLER_0_27_27
*928 FILLER_0_27_294
*929 FILLER_0_27_298
*930 FILLER_0_27_3
*931 FILLER_0_27_39
*932 FILLER_0_27_51
*933 FILLER_0_27_55
*934 FILLER_0_27_57
*935 FILLER_0_27_69
*936 FILLER_0_27_81
*937 FILLER_0_27_93
*938 FILLER_0_28_109
*939 FILLER_0_28_121
*940 FILLER_0_28_133
*941 FILLER_0_28_139
*942 FILLER_0_28_141
*943 FILLER_0_28_15
*944 FILLER_0_28_152
*945 FILLER_0_28_158
*946 FILLER_0_28_169
*947 FILLER_0_28_181
*948 FILLER_0_28_192
*949 FILLER_0_28_206
*950 FILLER_0_28_218
*951 FILLER_0_28_246
*952 FILLER_0_28_253
*953 FILLER_0_28_27
*954 FILLER_0_28_29
*955 FILLER_0_28_3
*956 FILLER_0_28_303
*957 FILLER_0_28_307
*958 FILLER_0_28_316
*959 FILLER_0_28_329
*960 FILLER_0_28_41
*961 FILLER_0_28_53
*962 FILLER_0_28_65
*963 FILLER_0_28_77
*964 FILLER_0_28_83
*965 FILLER_0_28_85
*966 FILLER_0_28_97
*967 FILLER_0_29_105
*968 FILLER_0_29_111
*969 FILLER_0_29_113
*970 FILLER_0_29_125
*971 FILLER_0_29_137
*972 FILLER_0_29_15
*973 FILLER_0_29_167
*974 FILLER_0_29_169
*975 FILLER_0_29_196
*976 FILLER_0_29_208
*977 FILLER_0_29_220
*978 FILLER_0_29_225
*979 FILLER_0_29_252
*980 FILLER_0_29_264
*981 FILLER_0_29_27
*982 FILLER_0_29_272
*983 FILLER_0_29_290
*984 FILLER_0_29_298
*985 FILLER_0_29_3
*986 FILLER_0_29_310
*987 FILLER_0_29_320
*988 FILLER_0_29_328
*989 FILLER_0_29_334
*990 FILLER_0_29_39
*991 FILLER_0_29_51
*992 FILLER_0_29_55
*993 FILLER_0_29_57
*994 FILLER_0_29_69
*995 FILLER_0_29_81
*996 FILLER_0_29_93
*997 FILLER_0_2_109
*998 FILLER_0_2_121
*999 FILLER_0_2_133
*1000 FILLER_0_2_139
*1001 FILLER_0_2_141
*1002 FILLER_0_2_15
*1003 FILLER_0_2_153
*1004 FILLER_0_2_165
*1005 FILLER_0_2_177
*1006 FILLER_0_2_189
*1007 FILLER_0_2_195
*1008 FILLER_0_2_197
*1009 FILLER_0_2_209
*1010 FILLER_0_2_221
*1011 FILLER_0_2_233
*1012 FILLER_0_2_245
*1013 FILLER_0_2_251
*1014 FILLER_0_2_253
*1015 FILLER_0_2_265
*1016 FILLER_0_2_27
*1017 FILLER_0_2_277
*1018 FILLER_0_2_289
*1019 FILLER_0_2_29
*1020 FILLER_0_2_3
*1021 FILLER_0_2_301
*1022 FILLER_0_2_307
*1023 FILLER_0_2_309
*1024 FILLER_0_2_321
*1025 FILLER_0_2_333
*1026 FILLER_0_2_41
*1027 FILLER_0_2_53
*1028 FILLER_0_2_65
*1029 FILLER_0_2_77
*1030 FILLER_0_2_83
*1031 FILLER_0_2_85
*1032 FILLER_0_2_97
*1033 FILLER_0_30_105
*1034 FILLER_0_30_135
*1035 FILLER_0_30_139
*1036 FILLER_0_30_141
*1037 FILLER_0_30_15
*1038 FILLER_0_30_173
*1039 FILLER_0_30_212
*1040 FILLER_0_30_253
*1041 FILLER_0_30_257
*1042 FILLER_0_30_27
*1043 FILLER_0_30_278
*1044 FILLER_0_30_29
*1045 FILLER_0_30_290
*1046 FILLER_0_30_298
*1047 FILLER_0_30_3
*1048 FILLER_0_30_307
*1049 FILLER_0_30_332
*1050 FILLER_0_30_41
*1051 FILLER_0_30_53
*1052 FILLER_0_30_65
*1053 FILLER_0_30_77
*1054 FILLER_0_30_83
*1055 FILLER_0_30_85
*1056 FILLER_0_30_97
*1057 FILLER_0_31_101
*1058 FILLER_0_31_15
*1059 FILLER_0_31_164
*1060 FILLER_0_31_184
*1061 FILLER_0_31_208
*1062 FILLER_0_31_220
*1063 FILLER_0_31_228
*1064 FILLER_0_31_27
*1065 FILLER_0_31_270
*1066 FILLER_0_31_278
*1067 FILLER_0_31_287
*1068 FILLER_0_31_291
*1069 FILLER_0_31_3
*1070 FILLER_0_31_39
*1071 FILLER_0_31_51
*1072 FILLER_0_31_55
*1073 FILLER_0_31_57
*1074 FILLER_0_31_69
*1075 FILLER_0_31_81
*1076 FILLER_0_31_93
*1077 FILLER_0_32_109
*1078 FILLER_0_32_115
*1079 FILLER_0_32_147
*1080 FILLER_0_32_15
*1081 FILLER_0_32_151
*1082 FILLER_0_32_174
*1083 FILLER_0_32_179
*1084 FILLER_0_32_183
*1085 FILLER_0_32_195
*1086 FILLER_0_32_237
*1087 FILLER_0_32_250
*1088 FILLER_0_32_261
*1089 FILLER_0_32_27
*1090 FILLER_0_32_273
*1091 FILLER_0_32_29
*1092 FILLER_0_32_3
*1093 FILLER_0_32_333
*1094 FILLER_0_32_41
*1095 FILLER_0_32_53
*1096 FILLER_0_32_65
*1097 FILLER_0_32_77
*1098 FILLER_0_32_83
*1099 FILLER_0_32_85
*1100 FILLER_0_32_97
*1101 FILLER_0_33_105
*1102 FILLER_0_33_113
*1103 FILLER_0_33_122
*1104 FILLER_0_33_147
*1105 FILLER_0_33_15
*1106 FILLER_0_33_165
*1107 FILLER_0_33_172
*1108 FILLER_0_33_184
*1109 FILLER_0_33_192
*1110 FILLER_0_33_222
*1111 FILLER_0_33_232
*1112 FILLER_0_33_237
*1113 FILLER_0_33_249
*1114 FILLER_0_33_261
*1115 FILLER_0_33_265
*1116 FILLER_0_33_27
*1117 FILLER_0_33_276
*1118 FILLER_0_33_281
*1119 FILLER_0_33_293
*1120 FILLER_0_33_297
*1121 FILLER_0_33_3
*1122 FILLER_0_33_331
*1123 FILLER_0_33_39
*1124 FILLER_0_33_51
*1125 FILLER_0_33_55
*1126 FILLER_0_33_57
*1127 FILLER_0_33_69
*1128 FILLER_0_33_81
*1129 FILLER_0_33_93
*1130 FILLER_0_34_109
*1131 FILLER_0_34_115
*1132 FILLER_0_34_135
*1133 FILLER_0_34_139
*1134 FILLER_0_34_141
*1135 FILLER_0_34_147
*1136 FILLER_0_34_15
*1137 FILLER_0_34_178
*1138 FILLER_0_34_190
*1139 FILLER_0_34_213
*1140 FILLER_0_34_225
*1141 FILLER_0_34_237
*1142 FILLER_0_34_250
*1143 FILLER_0_34_258
*1144 FILLER_0_34_27
*1145 FILLER_0_34_280
*1146 FILLER_0_34_29
*1147 FILLER_0_34_292
*1148 FILLER_0_34_3
*1149 FILLER_0_34_304
*1150 FILLER_0_34_329
*1151 FILLER_0_34_41
*1152 FILLER_0_34_53
*1153 FILLER_0_34_65
*1154 FILLER_0_34_77
*1155 FILLER_0_34_83
*1156 FILLER_0_34_85
*1157 FILLER_0_34_97
*1158 FILLER_0_35_105
*1159 FILLER_0_35_111
*1160 FILLER_0_35_113
*1161 FILLER_0_35_118
*1162 FILLER_0_35_137
*1163 FILLER_0_35_143
*1164 FILLER_0_35_15
*1165 FILLER_0_35_164
*1166 FILLER_0_35_181
*1167 FILLER_0_35_214
*1168 FILLER_0_35_222
*1169 FILLER_0_35_225
*1170 FILLER_0_35_229
*1171 FILLER_0_35_27
*1172 FILLER_0_35_274
*1173 FILLER_0_35_3
*1174 FILLER_0_35_39
*1175 FILLER_0_35_51
*1176 FILLER_0_35_55
*1177 FILLER_0_35_57
*1178 FILLER_0_35_69
*1179 FILLER_0_35_81
*1180 FILLER_0_35_93
*1181 FILLER_0_36_141
*1182 FILLER_0_36_149
*1183 FILLER_0_36_15
*1184 FILLER_0_36_177
*1185 FILLER_0_36_189
*1186 FILLER_0_36_220
*1187 FILLER_0_36_249
*1188 FILLER_0_36_27
*1189 FILLER_0_36_270
*1190 FILLER_0_36_29
*1191 FILLER_0_36_291
*1192 FILLER_0_36_3
*1193 FILLER_0_36_302
*1194 FILLER_0_36_333
*1195 FILLER_0_36_41
*1196 FILLER_0_36_53
*1197 FILLER_0_36_65
*1198 FILLER_0_36_77
*1199 FILLER_0_36_83
*1200 FILLER_0_36_85
*1201 FILLER_0_36_92
*1202 FILLER_0_36_96
*1203 FILLER_0_37_113
*1204 FILLER_0_37_15
*1205 FILLER_0_37_169
*1206 FILLER_0_37_181
*1207 FILLER_0_37_187
*1208 FILLER_0_37_217
*1209 FILLER_0_37_223
*1210 FILLER_0_37_245
*1211 FILLER_0_37_269
*1212 FILLER_0_37_27
*1213 FILLER_0_37_278
*1214 FILLER_0_37_3
*1215 FILLER_0_37_334
*1216 FILLER_0_37_39
*1217 FILLER_0_37_51
*1218 FILLER_0_37_55
*1219 FILLER_0_37_57
*1220 FILLER_0_37_69
*1221 FILLER_0_37_75
*1222 FILLER_0_37_82
*1223 FILLER_0_38_10
*1224 FILLER_0_38_105
*1225 FILLER_0_38_110
*1226 FILLER_0_38_139
*1227 FILLER_0_38_14
*1228 FILLER_0_38_141
*1229 FILLER_0_38_153
*1230 FILLER_0_38_159
*1231 FILLER_0_38_169
*1232 FILLER_0_38_18
*1233 FILLER_0_38_191
*1234 FILLER_0_38_195
*1235 FILLER_0_38_197
*1236 FILLER_0_38_207
*1237 FILLER_0_38_219
*1238 FILLER_0_38_22
*1239 FILLER_0_38_223
*1240 FILLER_0_38_225
*1241 FILLER_0_38_237
*1242 FILLER_0_38_249
*1243 FILLER_0_38_279
*1244 FILLER_0_38_309
*1245 FILLER_0_38_32
*1246 FILLER_0_38_38
*1247 FILLER_0_38_42
*1248 FILLER_0_38_46
*1249 FILLER_0_38_50
*1250 FILLER_0_38_54
*1251 FILLER_0_38_57
*1252 FILLER_0_38_6
*1253 FILLER_0_38_62
*1254 FILLER_0_38_74
*1255 FILLER_0_3_105
*1256 FILLER_0_3_111
*1257 FILLER_0_3_113
*1258 FILLER_0_3_125
*1259 FILLER_0_3_137
*1260 FILLER_0_3_149
*1261 FILLER_0_3_15
*1262 FILLER_0_3_161
*1263 FILLER_0_3_167
*1264 FILLER_0_3_169
*1265 FILLER_0_3_181
*1266 FILLER_0_3_193
*1267 FILLER_0_3_205
*1268 FILLER_0_3_217
*1269 FILLER_0_3_223
*1270 FILLER_0_3_225
*1271 FILLER_0_3_237
*1272 FILLER_0_3_249
*1273 FILLER_0_3_261
*1274 FILLER_0_3_27
*1275 FILLER_0_3_273
*1276 FILLER_0_3_279
*1277 FILLER_0_3_281
*1278 FILLER_0_3_293
*1279 FILLER_0_3_3
*1280 FILLER_0_3_305
*1281 FILLER_0_3_317
*1282 FILLER_0_3_329
*1283 FILLER_0_3_39
*1284 FILLER_0_3_51
*1285 FILLER_0_3_55
*1286 FILLER_0_3_57
*1287 FILLER_0_3_69
*1288 FILLER_0_3_81
*1289 FILLER_0_3_93
*1290 FILLER_0_4_109
*1291 FILLER_0_4_121
*1292 FILLER_0_4_133
*1293 FILLER_0_4_139
*1294 FILLER_0_4_141
*1295 FILLER_0_4_15
*1296 FILLER_0_4_153
*1297 FILLER_0_4_165
*1298 FILLER_0_4_177
*1299 FILLER_0_4_189
*1300 FILLER_0_4_195
*1301 FILLER_0_4_197
*1302 FILLER_0_4_209
*1303 FILLER_0_4_221
*1304 FILLER_0_4_233
*1305 FILLER_0_4_245
*1306 FILLER_0_4_251
*1307 FILLER_0_4_253
*1308 FILLER_0_4_265
*1309 FILLER_0_4_27
*1310 FILLER_0_4_277
*1311 FILLER_0_4_289
*1312 FILLER_0_4_29
*1313 FILLER_0_4_3
*1314 FILLER_0_4_301
*1315 FILLER_0_4_307
*1316 FILLER_0_4_309
*1317 FILLER_0_4_321
*1318 FILLER_0_4_333
*1319 FILLER_0_4_41
*1320 FILLER_0_4_53
*1321 FILLER_0_4_65
*1322 FILLER_0_4_77
*1323 FILLER_0_4_83
*1324 FILLER_0_4_85
*1325 FILLER_0_4_97
*1326 FILLER_0_5_105
*1327 FILLER_0_5_111
*1328 FILLER_0_5_113
*1329 FILLER_0_5_125
*1330 FILLER_0_5_137
*1331 FILLER_0_5_149
*1332 FILLER_0_5_15
*1333 FILLER_0_5_161
*1334 FILLER_0_5_167
*1335 FILLER_0_5_169
*1336 FILLER_0_5_181
*1337 FILLER_0_5_193
*1338 FILLER_0_5_205
*1339 FILLER_0_5_217
*1340 FILLER_0_5_223
*1341 FILLER_0_5_225
*1342 FILLER_0_5_237
*1343 FILLER_0_5_249
*1344 FILLER_0_5_261
*1345 FILLER_0_5_27
*1346 FILLER_0_5_273
*1347 FILLER_0_5_279
*1348 FILLER_0_5_281
*1349 FILLER_0_5_293
*1350 FILLER_0_5_3
*1351 FILLER_0_5_305
*1352 FILLER_0_5_317
*1353 FILLER_0_5_329
*1354 FILLER_0_5_39
*1355 FILLER_0_5_51
*1356 FILLER_0_5_55
*1357 FILLER_0_5_57
*1358 FILLER_0_5_69
*1359 FILLER_0_5_81
*1360 FILLER_0_5_93
*1361 FILLER_0_6_109
*1362 FILLER_0_6_121
*1363 FILLER_0_6_133
*1364 FILLER_0_6_139
*1365 FILLER_0_6_141
*1366 FILLER_0_6_15
*1367 FILLER_0_6_153
*1368 FILLER_0_6_165
*1369 FILLER_0_6_177
*1370 FILLER_0_6_189
*1371 FILLER_0_6_195
*1372 FILLER_0_6_197
*1373 FILLER_0_6_209
*1374 FILLER_0_6_221
*1375 FILLER_0_6_233
*1376 FILLER_0_6_245
*1377 FILLER_0_6_251
*1378 FILLER_0_6_253
*1379 FILLER_0_6_265
*1380 FILLER_0_6_27
*1381 FILLER_0_6_277
*1382 FILLER_0_6_289
*1383 FILLER_0_6_29
*1384 FILLER_0_6_3
*1385 FILLER_0_6_301
*1386 FILLER_0_6_307
*1387 FILLER_0_6_309
*1388 FILLER_0_6_321
*1389 FILLER_0_6_333
*1390 FILLER_0_6_41
*1391 FILLER_0_6_53
*1392 FILLER_0_6_65
*1393 FILLER_0_6_77
*1394 FILLER_0_6_83
*1395 FILLER_0_6_85
*1396 FILLER_0_6_97
*1397 FILLER_0_7_105
*1398 FILLER_0_7_111
*1399 FILLER_0_7_113
*1400 FILLER_0_7_125
*1401 FILLER_0_7_137
*1402 FILLER_0_7_149
*1403 FILLER_0_7_15
*1404 FILLER_0_7_161
*1405 FILLER_0_7_167
*1406 FILLER_0_7_169
*1407 FILLER_0_7_181
*1408 FILLER_0_7_193
*1409 FILLER_0_7_205
*1410 FILLER_0_7_217
*1411 FILLER_0_7_223
*1412 FILLER_0_7_225
*1413 FILLER_0_7_237
*1414 FILLER_0_7_249
*1415 FILLER_0_7_261
*1416 FILLER_0_7_27
*1417 FILLER_0_7_273
*1418 FILLER_0_7_279
*1419 FILLER_0_7_281
*1420 FILLER_0_7_293
*1421 FILLER_0_7_3
*1422 FILLER_0_7_305
*1423 FILLER_0_7_317
*1424 FILLER_0_7_329
*1425 FILLER_0_7_39
*1426 FILLER_0_7_51
*1427 FILLER_0_7_55
*1428 FILLER_0_7_57
*1429 FILLER_0_7_69
*1430 FILLER_0_7_81
*1431 FILLER_0_7_93
*1432 FILLER_0_8_109
*1433 FILLER_0_8_121
*1434 FILLER_0_8_133
*1435 FILLER_0_8_139
*1436 FILLER_0_8_141
*1437 FILLER_0_8_15
*1438 FILLER_0_8_153
*1439 FILLER_0_8_165
*1440 FILLER_0_8_177
*1441 FILLER_0_8_189
*1442 FILLER_0_8_195
*1443 FILLER_0_8_197
*1444 FILLER_0_8_209
*1445 FILLER_0_8_221
*1446 FILLER_0_8_233
*1447 FILLER_0_8_245
*1448 FILLER_0_8_251
*1449 FILLER_0_8_253
*1450 FILLER_0_8_265
*1451 FILLER_0_8_27
*1452 FILLER_0_8_277
*1453 FILLER_0_8_289
*1454 FILLER_0_8_29
*1455 FILLER_0_8_3
*1456 FILLER_0_8_301
*1457 FILLER_0_8_307
*1458 FILLER_0_8_309
*1459 FILLER_0_8_321
*1460 FILLER_0_8_333
*1461 FILLER_0_8_41
*1462 FILLER_0_8_53
*1463 FILLER_0_8_65
*1464 FILLER_0_8_77
*1465 FILLER_0_8_83
*1466 FILLER_0_8_85
*1467 FILLER_0_8_97
*1468 FILLER_0_9_105
*1469 FILLER_0_9_111
*1470 FILLER_0_9_113
*1471 FILLER_0_9_125
*1472 FILLER_0_9_137
*1473 FILLER_0_9_149
*1474 FILLER_0_9_15
*1475 FILLER_0_9_161
*1476 FILLER_0_9_167
*1477 FILLER_0_9_169
*1478 FILLER_0_9_181
*1479 FILLER_0_9_193
*1480 FILLER_0_9_205
*1481 FILLER_0_9_217
*1482 FILLER_0_9_223
*1483 FILLER_0_9_225
*1484 FILLER_0_9_237
*1485 FILLER_0_9_249
*1486 FILLER_0_9_261
*1487 FILLER_0_9_27
*1488 FILLER_0_9_273
*1489 FILLER_0_9_279
*1490 FILLER_0_9_281
*1491 FILLER_0_9_293
*1492 FILLER_0_9_3
*1493 FILLER_0_9_305
*1494 FILLER_0_9_317
*1495 FILLER_0_9_329
*1496 FILLER_0_9_39
*1497 FILLER_0_9_51
*1498 FILLER_0_9_55
*1499 FILLER_0_9_57
*1500 FILLER_0_9_69
*1501 FILLER_0_9_81
*1502 FILLER_0_9_93
*1503 PHY_EDGE_ROW_0_Left_39
*1504 PHY_EDGE_ROW_0_Right_0