*SPEF "ieee 1481-1999"
*DESIGN "tt_um_ps2_morse_encoder_top"
*DATE "11:11:11 Fri 11 11, 1111"
*VENDOR "OpenRCX"
*PROGRAM "Parallel Extraction"
*VERSION "1.0"
*DESIGN_FLOW "NAME_SCOPE LOCAL" "PIN_CAP NONE"
*DIVIDER /
*DELIMITER :
*BUS_DELIMITER []
*T_UNIT 1 NS
*C_UNIT 1 PF
*R_UNIT 1 OHM
*L_UNIT 1 HENRY

*NAME_MAP
*3 clk
*4 ena
*5 rst_n
*6 ui_in[0]
*7 ui_in[1]
*8 ui_in[2]
*9 ui_in[3]
*10 ui_in[4]
*11 ui_in[5]
*12 ui_in[6]
*13 ui_in[7]
*14 uio_in[0]
*15 uio_in[1]
*16 uio_in[2]
*17 uio_in[3]
*18 uio_in[4]
*19 uio_in[5]
*20 uio_in[6]
*21 uio_in[7]
*22 net10
*23 net11
*24 net12
*25 net13
*26 net14
*27 net15
*28 net16
*29 net17
*30 net18
*31 net19
*32 net20
*33 net21
*34 net22
*35 net23
*36 net24
*37 net25
*38 uo_out[0]
*39 net26
*40 net27
*41 uo_out[3]
*42 net28
*43 net29
*44 uo_out[6]
*45 uo_out[7]
*46 _0000_
*47 _0001_
*48 _0002_
*49 _0003_
*50 _0004_
*51 _0005_
*52 _0006_
*53 _0007_
*54 _0008_
*55 _0009_
*56 _0010_
*57 _0011_
*58 _0012_
*59 _0013_
*60 _0014_
*61 _0015_
*62 _0016_
*63 _0017_
*64 _0018_
*65 _0019_
*66 _0020_
*67 _0021_
*68 _0022_
*69 _0023_
*70 _0024_
*71 _0025_
*72 _0026_
*73 _0027_
*74 _0028_
*75 _0029_
*76 _0030_
*77 _0031_
*78 _0032_
*79 _0033_
*80 _0034_
*81 _0035_
*82 _0036_
*83 _0037_
*84 _0038_
*85 _0039_
*86 _0040_
*87 _0041_
*88 _0042_
*89 _0043_
*90 _0044_
*91 _0045_
*92 _0046_
*93 _0047_
*94 _0048_
*95 _0049_
*96 _0050_
*97 _0051_
*98 _0052_
*99 _0053_
*100 _0054_
*101 _0055_
*102 _0056_
*103 _0057_
*104 _0058_
*105 _0059_
*106 _0060_
*107 _0061_
*108 _0062_
*109 _0063_
*110 _0064_
*111 _0065_
*112 _0066_
*113 _0067_
*114 _0068_
*115 _0069_
*116 _0070_
*117 _0071_
*118 _0072_
*119 _0073_
*120 _0074_
*121 _0075_
*122 _0076_
*123 _0077_
*124 _0078_
*125 _0079_
*126 _0080_
*127 _0081_
*128 _0082_
*129 _0083_
*130 _0084_
*131 _0085_
*132 _0086_
*133 _0087_
*134 _0088_
*135 _0089_
*136 _0090_
*137 _0091_
*138 _0092_
*139 _0093_
*140 _0094_
*141 _0095_
*142 _0096_
*143 _0097_
*144 _0098_
*145 _0099_
*146 _0100_
*147 _0101_
*148 _0102_
*149 _0103_
*150 _0104_
*151 _0105_
*152 _0106_
*153 _0107_
*154 _0108_
*155 _0109_
*156 _0110_
*157 _0111_
*158 _0112_
*159 _0113_
*160 _0114_
*161 _0115_
*162 _0116_
*163 _0117_
*164 _0118_
*165 _0119_
*166 _0120_
*167 _0121_
*168 _0122_
*169 _0123_
*170 _0124_
*171 _0125_
*172 _0126_
*173 _0127_
*174 _0128_
*175 _0129_
*176 _0130_
*177 _0131_
*178 _0132_
*179 _0133_
*180 _0134_
*181 _0135_
*182 _0136_
*183 _0137_
*184 _0138_
*185 _0139_
*186 _0140_
*187 _0141_
*188 _0142_
*189 _0143_
*190 _0144_
*191 _0145_
*192 _0146_
*193 _0147_
*194 _0148_
*195 _0149_
*196 _0150_
*197 _0151_
*198 _0152_
*199 _0153_
*200 _0154_
*201 _0155_
*202 _0156_
*203 _0157_
*204 _0158_
*205 _0159_
*206 _0160_
*207 _0161_
*208 _0162_
*209 _0163_
*210 _0164_
*211 _0165_
*212 _0166_
*213 _0167_
*214 _0168_
*215 _0169_
*216 _0170_
*217 _0171_
*218 _0172_
*219 _0173_
*220 _0174_
*221 _0175_
*222 _0176_
*223 _0177_
*224 _0178_
*225 _0179_
*226 _0180_
*227 _0181_
*228 _0182_
*229 _0183_
*230 _0184_
*231 _0185_
*232 _0186_
*233 _0187_
*234 _0188_
*235 _0189_
*236 _0190_
*237 _0191_
*238 _0192_
*239 _0193_
*240 _0194_
*241 _0195_
*242 _0196_
*243 _0197_
*244 _0198_
*245 _0199_
*246 _0200_
*247 _0201_
*248 _0202_
*249 _0203_
*250 _0204_
*251 _0205_
*252 _0206_
*253 _0207_
*254 _0208_
*255 _0209_
*256 _0210_
*257 _0211_
*258 _0212_
*259 _0213_
*260 _0214_
*261 _0215_
*262 _0216_
*263 _0217_
*264 _0218_
*265 _0219_
*266 _0220_
*267 _0221_
*268 _0222_
*269 _0223_
*270 _0224_
*271 _0225_
*272 _0226_
*273 _0227_
*274 _0228_
*275 _0229_
*276 _0230_
*277 _0231_
*278 _0232_
*279 _0233_
*280 _0234_
*281 _0235_
*282 _0236_
*283 _0237_
*284 _0238_
*285 _0239_
*286 _0240_
*287 _0241_
*288 _0242_
*289 _0243_
*290 _0244_
*291 _0245_
*292 _0246_
*293 _0247_
*294 _0248_
*295 _0249_
*296 _0250_
*297 _0251_
*298 _0252_
*299 _0253_
*300 _0254_
*301 _0255_
*302 _0256_
*303 _0257_
*304 _0258_
*305 _0259_
*306 _0260_
*307 _0261_
*308 _0262_
*309 _0263_
*310 _0264_
*311 _0265_
*312 _0266_
*313 _0267_
*314 _0268_
*315 _0269_
*316 _0270_
*317 _0271_
*318 _0272_
*319 _0273_
*320 _0274_
*321 _0275_
*322 _0276_
*323 _0277_
*324 _0278_
*325 _0279_
*326 _0280_
*327 _0281_
*328 _0282_
*329 _0283_
*330 _0284_
*331 _0285_
*332 _0286_
*333 _0287_
*334 _0288_
*335 _0289_
*336 _0290_
*337 _0291_
*338 _0292_
*339 _0293_
*340 _0294_
*341 _0295_
*342 _0296_
*343 _0297_
*344 _0298_
*345 _0299_
*346 _0300_
*347 _0301_
*348 _0302_
*349 _0303_
*350 _0304_
*351 _0305_
*352 _0306_
*353 _0307_
*354 _0308_
*355 _0309_
*356 _0310_
*357 _0311_
*358 _0312_
*359 _0313_
*360 _0314_
*361 _0315_
*362 _0316_
*363 _0317_
*364 _0318_
*365 _0319_
*366 _0320_
*367 _0321_
*368 _0322_
*369 _0323_
*370 _0324_
*371 _0325_
*372 _0326_
*373 _0327_
*374 _0328_
*375 _0329_
*376 _0330_
*377 _0331_
*378 _0332_
*379 _0333_
*380 _0334_
*381 _0335_
*382 _0336_
*383 _0337_
*384 _0338_
*385 _0339_
*386 _0340_
*387 _0341_
*388 _0342_
*389 _0343_
*390 _0344_
*391 _0345_
*392 _0346_
*393 _0347_
*394 _0348_
*395 _0349_
*396 _0350_
*397 _0351_
*398 _0352_
*399 _0353_
*400 _0354_
*401 _0355_
*402 _0356_
*403 _0357_
*404 _0358_
*405 _0359_
*406 _0360_
*407 _0361_
*408 _0362_
*409 _0363_
*410 _0364_
*411 _0365_
*412 _0366_
*413 _0367_
*414 _0368_
*415 _0369_
*416 _0370_
*417 _0371_
*418 _0372_
*419 _0373_
*420 _0374_
*421 _0375_
*422 _0376_
*423 _0377_
*424 _0378_
*425 _0379_
*426 _0380_
*427 _0381_
*428 _0382_
*429 _0383_
*430 _0384_
*431 _0385_
*432 _0386_
*433 _0387_
*434 _0388_
*435 _0389_
*436 _0390_
*437 _0391_
*438 _0392_
*439 _0393_
*440 _0394_
*441 _0395_
*442 _0396_
*443 _0397_
*444 _0398_
*445 _0399_
*446 _0400_
*447 _0401_
*448 _0402_
*449 _0403_
*450 _0404_
*451 _0405_
*452 _0406_
*453 _0407_
*454 _0408_
*455 _0409_
*456 _0410_
*457 _0411_
*458 _0412_
*459 _0413_
*460 _0414_
*461 _0415_
*462 _0416_
*463 _0417_
*464 _0418_
*465 _0419_
*466 _0420_
*467 _0421_
*468 _0422_
*469 _0423_
*470 _0424_
*471 _0425_
*472 _0426_
*473 _0427_
*474 _0428_
*475 _0429_
*476 _0430_
*477 _0431_
*478 _0432_
*479 _0433_
*480 _0434_
*481 _0435_
*482 _0436_
*483 _0437_
*484 _0438_
*485 _0439_
*486 _0440_
*487 _0441_
*488 _0442_
*489 _0443_
*490 _0444_
*491 _0445_
*492 _0446_
*493 _0447_
*494 _0448_
*495 _0449_
*496 _0450_
*497 _0451_
*498 _0452_
*499 _0453_
*500 _0454_
*501 _0455_
*502 _0456_
*503 _0457_
*504 _0458_
*505 _0459_
*506 _0460_
*507 _0461_
*508 _0462_
*509 _0463_
*510 _0464_
*511 _0465_
*512 _0466_
*513 _0467_
*514 _0468_
*515 _0469_
*516 _0470_
*517 _0471_
*518 _0472_
*519 _0473_
*520 _0474_
*521 _0475_
*522 _0476_
*523 _0477_
*524 _0478_
*525 _0479_
*526 _0480_
*527 _0481_
*528 _0482_
*529 _0483_
*530 _0484_
*531 _0485_
*532 _0486_
*533 _0487_
*534 _0488_
*535 _0489_
*536 _0490_
*537 _0491_
*538 _0492_
*539 _0493_
*540 _0494_
*541 _0495_
*542 _0496_
*543 _0497_
*544 _0498_
*545 _0499_
*546 _0500_
*547 _0501_
*548 _0502_
*549 _0503_
*550 _0504_
*551 _0505_
*552 _0506_
*553 _0507_
*554 _0508_
*555 _0509_
*556 _0510_
*557 _0511_
*558 _0512_
*559 _0513_
*560 _0514_
*561 _0515_
*562 _0516_
*563 _0517_
*564 _0518_
*565 _0519_
*566 _0520_
*567 _0521_
*568 _0522_
*569 _0523_
*570 _0524_
*571 _0525_
*572 _0526_
*573 _0527_
*574 _0528_
*575 _0529_
*576 _0530_
*577 _0531_
*578 _0532_
*579 _0533_
*580 _0534_
*581 _0535_
*582 _0536_
*583 _0537_
*584 _0538_
*585 _0539_
*586 _0540_
*587 _0541_
*588 _0542_
*589 _0543_
*590 _0544_
*591 _0545_
*592 _0546_
*593 _0547_
*594 _0548_
*595 _0549_
*596 _0550_
*597 _0551_
*598 _0552_
*599 _0553_
*600 _0554_
*601 _0555_
*602 _0556_
*603 _0557_
*604 _0558_
*605 _0559_
*606 _0560_
*607 _0561_
*608 _0562_
*609 _0563_
*610 _0564_
*611 _0565_
*612 _0566_
*613 _0567_
*614 _0568_
*615 _0569_
*616 _0570_
*617 _0571_
*618 _0572_
*619 _0573_
*620 _0574_
*621 _0575_
*622 _0576_
*623 _0577_
*624 _0578_
*625 _0579_
*626 _0580_
*627 _0581_
*628 _0582_
*629 _0583_
*630 _0584_
*631 _0585_
*632 _0586_
*633 _0587_
*634 _0588_
*635 _0589_
*636 _0590_
*637 _0591_
*638 _0592_
*639 _0593_
*640 _0594_
*641 _0595_
*642 _0596_
*643 _0597_
*644 _0598_
*645 _0599_
*646 _0600_
*647 _0601_
*648 _0602_
*649 _0603_
*650 _0604_
*651 _0605_
*652 _0606_
*653 _0607_
*654 _0608_
*655 _0609_
*656 _0610_
*657 _0611_
*658 _0612_
*659 _0613_
*660 _0614_
*661 _0615_
*662 _0616_
*663 _0617_
*664 _0618_
*665 _0619_
*666 _0620_
*667 _0621_
*668 _0622_
*669 _0623_
*670 _0624_
*671 _0625_
*672 _0626_
*673 _0627_
*674 _0628_
*675 _0629_
*676 _0630_
*677 _0631_
*678 _0632_
*679 _0633_
*680 _0634_
*681 _0635_
*682 _0636_
*683 _0637_
*684 _0638_
*685 _0639_
*686 _0640_
*687 _0641_
*688 _0642_
*689 _0643_
*690 _0644_
*691 _0645_
*692 _0646_
*693 _0647_
*694 _0648_
*695 _0649_
*696 _0650_
*697 _0651_
*698 _0652_
*699 _0653_
*700 _0654_
*701 _0655_
*702 _0656_
*703 _0657_
*704 _0658_
*705 _0659_
*706 _0660_
*707 _0661_
*708 _0662_
*709 _0663_
*710 _0664_
*711 _0665_
*712 _0666_
*713 _0667_
*714 _0668_
*715 _0669_
*716 _0670_
*717 _0671_
*718 _0672_
*719 _0673_
*720 _0674_
*721 _0675_
*722 _0676_
*723 _0677_
*724 _0678_
*725 _0679_
*726 _0680_
*727 _0681_
*728 _0682_
*729 _0683_
*730 _0684_
*731 _0685_
*732 _0686_
*733 _0687_
*734 _0688_
*735 _0689_
*736 _0690_
*737 _0691_
*738 _0692_
*739 _0693_
*740 _0694_
*741 _0695_
*742 _0696_
*743 _0697_
*744 _0698_
*745 _0699_
*746 _0700_
*747 _0701_
*748 _0702_
*749 _0703_
*750 _0704_
*751 _0705_
*752 _0706_
*753 _0707_
*754 _0708_
*755 _0709_
*756 _0710_
*757 _0711_
*758 _0712_
*759 _0713_
*760 _0714_
*761 _0715_
*762 _0716_
*763 _0717_
*764 _0718_
*765 _0719_
*766 _0720_
*767 _0721_
*768 _0722_
*769 _0723_
*770 _0724_
*771 _0725_
*772 _0726_
*773 _0727_
*774 _0728_
*775 _0729_
*776 _0730_
*777 _0731_
*778 _0732_
*779 _0733_
*780 _0734_
*781 _0735_
*782 _0736_
*783 _0737_
*784 _0738_
*785 _0739_
*786 _0740_
*787 _0741_
*788 _0742_
*789 _0743_
*790 _0744_
*791 _0745_
*792 _0746_
*793 _0747_
*794 _0748_
*795 _0749_
*796 _0750_
*797 _0751_
*798 _0752_
*799 _0753_
*800 _0754_
*801 _0755_
*802 _0756_
*803 _0757_
*804 _0758_
*805 _0759_
*806 _0760_
*807 _0761_
*808 _0762_
*809 _0763_
*810 _0764_
*811 _0765_
*812 _0766_
*813 _0767_
*814 _0768_
*815 _0769_
*816 _0770_
*817 _0771_
*818 _0772_
*819 _0773_
*820 _0774_
*821 _0775_
*822 _0776_
*823 _0777_
*824 _0778_
*825 _0779_
*826 _0780_
*827 _0781_
*828 _0782_
*829 _0783_
*830 _0784_
*831 _0785_
*832 _0786_
*833 _0787_
*834 _0788_
*835 _0789_
*836 _0790_
*837 _0791_
*838 _0792_
*839 _0793_
*840 _0794_
*841 _0795_
*842 _0796_
*843 _0797_
*844 _0798_
*845 _0799_
*846 _0800_
*847 _0801_
*848 _0802_
*849 _0803_
*850 _0804_
*851 _0805_
*852 _0806_
*853 _0807_
*854 _0808_
*855 _0809_
*856 _0810_
*857 _0811_
*858 _0812_
*859 _0813_
*860 _0814_
*861 _0815_
*862 _0816_
*863 _0817_
*864 _0818_
*865 _0819_
*866 _0820_
*867 _0821_
*868 _0822_
*869 _0823_
*870 _0824_
*871 _0825_
*872 _0826_
*873 _0827_
*874 _0828_
*875 _0829_
*876 _0830_
*877 _0831_
*878 _0832_
*879 _0833_
*880 _0834_
*881 _0835_
*882 _0836_
*883 _0837_
*884 _0838_
*885 _0839_
*886 _0840_
*887 _0841_
*888 _0842_
*889 _0843_
*890 _0844_
*891 _0845_
*892 _0846_
*893 _0847_
*894 _0848_
*895 _0849_
*896 _0850_
*897 _0851_
*898 _0852_
*899 _0853_
*900 _0854_
*901 _0855_
*902 _0856_
*903 _0857_
*904 _0858_
*905 _0859_
*906 _0860_
*907 _0861_
*908 _0862_
*909 _0863_
*910 _0864_
*911 _0865_
*912 _0866_
*913 _0867_
*914 _0868_
*915 _0869_
*916 _0870_
*917 _0871_
*918 _0872_
*919 _0873_
*920 _0874_
*921 _0875_
*922 _0876_
*923 _0877_
*924 _0878_
*925 _0879_
*926 _0880_
*927 _0881_
*928 _0882_
*929 _0883_
*930 _0884_
*931 _0885_
*932 _0886_
*933 _0887_
*934 _0888_
*935 _0889_
*936 _0890_
*937 _0891_
*938 _0892_
*939 _0893_
*940 _0894_
*941 _0895_
*942 _0896_
*943 _0897_
*944 _0898_
*945 _0899_
*946 _0900_
*947 _0901_
*948 _0902_
*949 _0903_
*950 _0904_
*951 _0905_
*952 _0906_
*953 _0907_
*954 _0908_
*955 _0909_
*956 _0910_
*957 _0911_
*958 _0912_
*959 _0913_
*960 _0914_
*961 _0915_
*962 _0916_
*963 _0917_
*964 _0918_
*965 _0919_
*966 _0920_
*967 _0921_
*968 _0922_
*969 _0923_
*970 _0924_
*971 _0925_
*972 _0926_
*973 _0927_
*974 _0928_
*975 _0929_
*976 _0930_
*977 _0931_
*978 _0932_
*979 _0933_
*980 _0934_
*981 _0935_
*982 _0936_
*983 _0937_
*984 _0938_
*985 _0939_
*986 _0940_
*987 _0941_
*988 _0942_
*989 _0943_
*990 _0944_
*991 _0945_
*992 _0946_
*993 _0947_
*994 _0948_
*995 _0949_
*996 _0950_
*997 _0951_
*998 _0952_
*999 _0953_
*1000 _0954_
*1001 _0955_
*1002 _0956_
*1003 _0957_
*1004 _0958_
*1005 _0959_
*1006 _0960_
*1007 _0961_
*1008 _0962_
*1009 _0963_
*1010 _0964_
*1011 _0965_
*1012 _0966_
*1013 _0967_
*1014 _0968_
*1015 _0969_
*1016 _0970_
*1017 _0971_
*1018 _0972_
*1019 _0973_
*1020 _0974_
*1021 _0975_
*1022 _0976_
*1023 _0977_
*1024 _0978_
*1025 _0979_
*1026 _0980_
*1027 _0981_
*1028 _0982_
*1029 _0983_
*1030 _0984_
*1031 _0985_
*1032 _0986_
*1033 _0987_
*1034 _0988_
*1035 _0989_
*1036 _0990_
*1037 _0991_
*1038 _0992_
*1039 _0993_
*1040 _0994_
*1041 _0995_
*1042 _0996_
*1043 _0997_
*1044 _0998_
*1045 _0999_
*1046 _1000_
*1047 _1001_
*1048 _1002_
*1049 _1003_
*1050 _1004_
*1051 _1005_
*1052 _1006_
*1053 _1007_
*1054 _1008_
*1055 _1009_
*1056 _1010_
*1057 _1011_
*1058 _1012_
*1059 _1013_
*1060 _1014_
*1061 _1015_
*1062 _1016_
*1063 _1017_
*1064 _1018_
*1065 _1019_
*1066 _1020_
*1067 _1021_
*1068 _1022_
*1069 _1023_
*1070 _1024_
*1071 _1025_
*1072 _1026_
*1073 _1027_
*1074 _1028_
*1075 _1029_
*1076 _1030_
*1077 _1031_
*1078 _1032_
*1079 _1033_
*1080 _1034_
*1081 _1035_
*1082 _1036_
*1083 _1037_
*1084 _1038_
*1085 _1039_
*1086 _1040_
*1087 _1041_
*1088 _1042_
*1089 _1043_
*1090 _1044_
*1091 _1045_
*1092 _1046_
*1093 _1047_
*1094 _1048_
*1095 _1049_
*1096 _1050_
*1097 _1051_
*1098 _1052_
*1099 _1053_
*1100 _1054_
*1101 _1055_
*1102 _1056_
*1103 _1057_
*1104 _1058_
*1105 _1059_
*1106 _1060_
*1107 _1061_
*1108 _1062_
*1109 _1063_
*1110 _1064_
*1111 _1065_
*1112 _1066_
*1113 _1067_
*1114 _1068_
*1115 _1069_
*1116 _1070_
*1117 _1071_
*1118 _1072_
*1119 _1073_
*1120 _1074_
*1121 _1075_
*1122 _1076_
*1123 _1077_
*1124 _1078_
*1125 _1079_
*1126 _1080_
*1127 _1081_
*1128 _1082_
*1129 _1083_
*1130 _1084_
*1131 _1085_
*1132 _1086_
*1133 _1087_
*1134 _1088_
*1135 _1089_
*1136 _1090_
*1137 _1091_
*1138 _1092_
*1139 _1093_
*1140 _1094_
*1141 _1095_
*1142 _1096_
*1143 _1097_
*1144 _1098_
*1145 _1099_
*1146 _1100_
*1147 _1101_
*1148 _1102_
*1149 _1103_
*1150 _1104_
*1151 _1105_
*1152 _1106_
*1153 clknet_0_clk
*1154 clknet_4_0_0_clk
*1155 clknet_4_10_0_clk
*1156 clknet_4_11_0_clk
*1157 clknet_4_12_0_clk
*1158 clknet_4_13_0_clk
*1159 clknet_4_14_0_clk
*1160 clknet_4_15_0_clk
*1161 clknet_4_1_0_clk
*1162 clknet_4_2_0_clk
*1163 clknet_4_3_0_clk
*1164 clknet_4_4_0_clk
*1165 clknet_4_5_0_clk
*1166 clknet_4_6_0_clk
*1167 clknet_4_7_0_clk
*1168 clknet_4_8_0_clk
*1169 clknet_4_9_0_clk
*1170 morse_code_encoder\.current_scancode\[0\]
*1171 morse_code_encoder\.current_scancode\[1\]
*1172 morse_code_encoder\.current_scancode\[2\]
*1173 morse_code_encoder\.current_scancode\[3\]
*1174 morse_code_encoder\.current_scancode\[4\]
*1175 morse_code_encoder\.current_scancode\[5\]
*1176 morse_code_encoder\.current_scancode\[6\]
*1177 morse_code_encoder\.current_scancode\[7\]
*1178 morse_code_encoder\.dah
*1179 morse_code_encoder\.data_counter\[0\]
*1180 morse_code_encoder\.data_counter\[1\]
*1181 morse_code_encoder\.data_counter\[2\]
*1182 morse_code_encoder\.data_counter\[3\]
*1183 morse_code_encoder\.data_shift_reg\[0\]
*1184 morse_code_encoder\.data_shift_reg\[10\]
*1185 morse_code_encoder\.data_shift_reg\[11\]
*1186 morse_code_encoder\.data_shift_reg\[12\]
*1187 morse_code_encoder\.data_shift_reg\[13\]
*1188 morse_code_encoder\.data_shift_reg\[14\]
*1189 morse_code_encoder\.data_shift_reg\[15\]
*1190 morse_code_encoder\.data_shift_reg\[16\]
*1191 morse_code_encoder\.data_shift_reg\[17\]
*1192 morse_code_encoder\.data_shift_reg\[18\]
*1193 morse_code_encoder\.data_shift_reg\[19\]
*1194 morse_code_encoder\.data_shift_reg\[1\]
*1195 morse_code_encoder\.data_shift_reg\[20\]
*1196 morse_code_encoder\.data_shift_reg\[21\]
*1197 morse_code_encoder\.data_shift_reg\[22\]
*1198 morse_code_encoder\.data_shift_reg\[23\]
*1199 morse_code_encoder\.data_shift_reg\[24\]
*1200 morse_code_encoder\.data_shift_reg\[25\]
*1201 morse_code_encoder\.data_shift_reg\[26\]
*1202 morse_code_encoder\.data_shift_reg\[27\]
*1203 morse_code_encoder\.data_shift_reg\[28\]
*1204 morse_code_encoder\.data_shift_reg\[29\]
*1205 morse_code_encoder\.data_shift_reg\[2\]
*1206 morse_code_encoder\.data_shift_reg\[30\]
*1207 morse_code_encoder\.data_shift_reg\[31\]
*1208 morse_code_encoder\.data_shift_reg\[32\]
*1209 morse_code_encoder\.data_shift_reg\[33\]
*1210 morse_code_encoder\.data_shift_reg\[34\]
*1211 morse_code_encoder\.data_shift_reg\[35\]
*1212 morse_code_encoder\.data_shift_reg\[36\]
*1213 morse_code_encoder\.data_shift_reg\[37\]
*1214 morse_code_encoder\.data_shift_reg\[38\]
*1215 morse_code_encoder\.data_shift_reg\[39\]
*1216 morse_code_encoder\.data_shift_reg\[3\]
*1217 morse_code_encoder\.data_shift_reg\[40\]
*1218 morse_code_encoder\.data_shift_reg\[41\]
*1219 morse_code_encoder\.data_shift_reg\[42\]
*1220 morse_code_encoder\.data_shift_reg\[43\]
*1221 morse_code_encoder\.data_shift_reg\[44\]
*1222 morse_code_encoder\.data_shift_reg\[45\]
*1223 morse_code_encoder\.data_shift_reg\[46\]
*1224 morse_code_encoder\.data_shift_reg\[47\]
*1225 morse_code_encoder\.data_shift_reg\[48\]
*1226 morse_code_encoder\.data_shift_reg\[49\]
*1227 morse_code_encoder\.data_shift_reg\[4\]
*1228 morse_code_encoder\.data_shift_reg\[50\]
*1229 morse_code_encoder\.data_shift_reg\[51\]
*1230 morse_code_encoder\.data_shift_reg\[52\]
*1231 morse_code_encoder\.data_shift_reg\[53\]
*1232 morse_code_encoder\.data_shift_reg\[54\]
*1233 morse_code_encoder\.data_shift_reg\[55\]
*1234 morse_code_encoder\.data_shift_reg\[56\]
*1235 morse_code_encoder\.data_shift_reg\[57\]
*1236 morse_code_encoder\.data_shift_reg\[58\]
*1237 morse_code_encoder\.data_shift_reg\[59\]
*1238 morse_code_encoder\.data_shift_reg\[5\]
*1239 morse_code_encoder\.data_shift_reg\[60\]
*1240 morse_code_encoder\.data_shift_reg\[61\]
*1241 morse_code_encoder\.data_shift_reg\[62\]
*1242 morse_code_encoder\.data_shift_reg\[63\]
*1243 morse_code_encoder\.data_shift_reg\[64\]
*1244 morse_code_encoder\.data_shift_reg\[65\]
*1245 morse_code_encoder\.data_shift_reg\[66\]
*1246 morse_code_encoder\.data_shift_reg\[67\]
*1247 morse_code_encoder\.data_shift_reg\[68\]
*1248 morse_code_encoder\.data_shift_reg\[69\]
*1249 morse_code_encoder\.data_shift_reg\[6\]
*1250 morse_code_encoder\.data_shift_reg\[70\]
*1251 morse_code_encoder\.data_shift_reg\[71\]
*1252 morse_code_encoder\.data_shift_reg\[72\]
*1253 morse_code_encoder\.data_shift_reg\[73\]
*1254 morse_code_encoder\.data_shift_reg\[74\]
*1255 morse_code_encoder\.data_shift_reg\[75\]
*1256 morse_code_encoder\.data_shift_reg\[76\]
*1257 morse_code_encoder\.data_shift_reg\[77\]
*1258 morse_code_encoder\.data_shift_reg\[78\]
*1259 morse_code_encoder\.data_shift_reg\[79\]
*1260 morse_code_encoder\.data_shift_reg\[7\]
*1261 morse_code_encoder\.data_shift_reg\[80\]
*1262 morse_code_encoder\.data_shift_reg\[81\]
*1263 morse_code_encoder\.data_shift_reg\[82\]
*1264 morse_code_encoder\.data_shift_reg\[83\]
*1265 morse_code_encoder\.data_shift_reg\[84\]
*1266 morse_code_encoder\.data_shift_reg\[85\]
*1267 morse_code_encoder\.data_shift_reg\[86\]
*1268 morse_code_encoder\.data_shift_reg\[87\]
*1269 morse_code_encoder\.data_shift_reg\[88\]
*1270 morse_code_encoder\.data_shift_reg\[89\]
*1271 morse_code_encoder\.data_shift_reg\[8\]
*1272 morse_code_encoder\.data_shift_reg\[90\]
*1273 morse_code_encoder\.data_shift_reg\[91\]
*1274 morse_code_encoder\.data_shift_reg\[92\]
*1275 morse_code_encoder\.data_shift_reg\[93\]
*1276 morse_code_encoder\.data_shift_reg\[94\]
*1277 morse_code_encoder\.data_shift_reg\[95\]
*1278 morse_code_encoder\.data_shift_reg\[9\]
*1279 morse_code_encoder\.dit
*1280 morse_code_encoder\.encoding_state\[0\]
*1281 morse_code_encoder\.encoding_state\[1\]
*1282 morse_code_encoder\.encoding_state\[2\]
*1283 morse_code_encoder\.encoding_state\[3\]
*1284 morse_code_encoder\.encoding_state\[4\]
*1285 morse_code_encoder\.morse_code_out
*1286 morse_code_encoder\.operation_mode
*1287 morse_code_encoder\.ps2_received_data\[0\]
*1288 morse_code_encoder\.ps2_received_data\[1\]
*1289 morse_code_encoder\.ps2_received_data\[2\]
*1290 morse_code_encoder\.ps2_received_data\[3\]
*1291 morse_code_encoder\.ps2_received_data\[4\]
*1292 morse_code_encoder\.ps2_received_data\[5\]
*1293 morse_code_encoder\.ps2_received_data\[6\]
*1294 morse_code_encoder\.ps2_received_data\[7\]
*1295 morse_code_encoder\.ps2_received_data_strb
*1296 morse_code_encoder\.timing_counter\[0\]
*1297 morse_code_encoder\.timing_counter\[10\]
*1298 morse_code_encoder\.timing_counter\[11\]
*1299 morse_code_encoder\.timing_counter\[12\]
*1300 morse_code_encoder\.timing_counter\[13\]
*1301 morse_code_encoder\.timing_counter\[14\]
*1302 morse_code_encoder\.timing_counter\[15\]
*1303 morse_code_encoder\.timing_counter\[16\]
*1304 morse_code_encoder\.timing_counter\[17\]
*1305 morse_code_encoder\.timing_counter\[18\]
*1306 morse_code_encoder\.timing_counter\[19\]
*1307 morse_code_encoder\.timing_counter\[1\]
*1308 morse_code_encoder\.timing_counter\[20\]
*1309 morse_code_encoder\.timing_counter\[2\]
*1310 morse_code_encoder\.timing_counter\[3\]
*1311 morse_code_encoder\.timing_counter\[4\]
*1312 morse_code_encoder\.timing_counter\[5\]
*1313 morse_code_encoder\.timing_counter\[6\]
*1314 morse_code_encoder\.timing_counter\[7\]
*1315 morse_code_encoder\.timing_counter\[8\]
*1316 morse_code_encoder\.timing_counter\[9\]
*1317 net1
*1318 net100
*1319 net101
*1320 net102
*1321 net103
*1322 net104
*1323 net105
*1324 net106
*1325 net107
*1326 net108
*1327 net109
*1328 net110
*1329 net111
*1330 net112
*1331 net113
*1332 net114
*1333 net115
*1334 net116
*1335 net117
*1336 net118
*1337 net119
*1338 net120
*1339 net121
*1340 net122
*1341 net123
*1342 net124
*1343 net125
*1344 net126
*1345 net127
*1346 net128
*1347 net129
*1348 net130
*1349 net131
*1350 net132
*1351 net133
*1352 net134
*1353 net135
*1354 net136
*1355 net137
*1356 net138
*1357 net139
*1358 net140
*1359 net141
*1360 net142
*1361 net143
*1362 net144
*1363 net145
*1364 net146
*1365 net147
*1366 net148
*1367 net149
*1368 net150
*1369 net151
*1370 net152
*1371 net153
*1372 net154
*1373 net155
*1374 net156
*1375 net157
*1376 net158
*1377 net159
*1378 net160
*1379 net161
*1380 net162
*1381 net163
*1382 net164
*1383 net165
*1384 net166
*1385 net167
*1386 net168
*1387 net169
*1388 net170
*1389 net171
*1390 net172
*1391 net173
*1392 net174
*1393 net175
*1394 net176
*1395 net177
*1396 net178
*1397 net179
*1398 net180
*1399 net181
*1400 net182
*1401 net183
*1402 net184
*1403 net185
*1404 net186
*1405 net187
*1406 net188
*1407 net2
*1408 net3
*1409 net30
*1410 net31
*1411 net32
*1412 net33
*1413 net34
*1414 net35
*1415 net36
*1416 net37
*1417 net38
*1418 net39
*1419 net4
*1420 net40
*1421 net41
*1422 net42
*1423 net43
*1424 net44
*1425 net45
*1426 net46
*1427 net47
*1428 net48
*1429 net49
*1430 net5
*1431 net50
*1432 net51
*1433 net52
*1434 net53
*1435 net54
*1436 net55
*1437 net56
*1438 net57
*1439 net58
*1440 net59
*1441 net6
*1442 net60
*1443 net61
*1444 net62
*1445 net63
*1446 net64
*1447 net65
*1448 net66
*1449 net67
*1450 net68
*1451 net69
*1452 net7
*1453 net70
*1454 net71
*1455 net72
*1456 net73
*1457 net74
*1458 net75
*1459 net76
*1460 net77
*1461 net78
*1462 net79
*1463 net8
*1464 net80
*1465 net81
*1466 net82
*1467 net83
*1468 net84
*1469 net85
*1470 net86
*1471 net87
*1472 net88
*1473 net89
*1474 net9
*1475 net90
*1476 net91
*1477 net92
*1478 net93
*1479 net94
*1480 net95
*1481 net96
*1482 net97
*1483 net98
*1484 net99
*1485 ps2_controller\.data_count\[0\]
*1486 ps2_controller\.data_count\[1\]
*1487 ps2_controller\.data_count\[2\]
*1488 ps2_controller\.data_count\[3\]
*1489 ps2_controller\.data_shift_reg\[0\]
*1490 ps2_controller\.data_shift_reg\[1\]
*1491 ps2_controller\.data_shift_reg\[2\]
*1492 ps2_controller\.data_shift_reg\[3\]
*1493 ps2_controller\.data_shift_reg\[4\]
*1494 ps2_controller\.data_shift_reg\[5\]
*1495 ps2_controller\.data_shift_reg\[6\]
*1496 ps2_controller\.data_shift_reg\[7\]
*1497 ps2_controller\.last_ps2_clk
*1498 ps2_controller\.receiver_state\[0\]
*1499 ps2_controller\.receiver_state\[1\]
*1500 ps2_controller\.receiver_state\[2\]
*1501 ps2_controller\.receiver_state\[3\]
*1502 tone_generator\.counter\[0\]
*1503 tone_generator\.counter\[1\]
*1504 tone_generator\.counter\[2\]
*1505 tone_generator\.counter\[3\]
*1506 tone_generator\.counter\[4\]
*1507 tone_generator\.counter\[5\]
*1508 tone_generator\.counter\[6\]
*1509 tone_generator\.counter\[7\]
*1510 tone_generator\.counter\[8\]
*1511 tone_generator\.counter\[9\]
*1512 tone_generator\.tone_out
*1513 ANTENNA_1
*1514 ANTENNA_2
*1515 ANTENNA_3
*1516 ANTENNA_4
*1517 ANTENNA_5
*1518 ANTENNA_6
*1519 ANTENNA_7
*1520 FILLER_0_0_121
*1521 FILLER_0_0_149
*1522 FILLER_0_0_177
*1523 FILLER_0_0_187
*1524 FILLER_0_0_24
*1525 FILLER_0_0_241
*1526 FILLER_0_0_277
*1527 FILLER_0_0_29
*1528 FILLER_0_0_3
*1529 FILLER_0_0_309
*1530 FILLER_0_0_332
*1531 FILLER_0_0_57
*1532 FILLER_0_0_85
*1533 FILLER_0_10_109
*1534 FILLER_0_10_115
*1535 FILLER_0_10_138
*1536 FILLER_0_10_15
*1537 FILLER_0_10_169
*1538 FILLER_0_10_189
*1539 FILLER_0_10_203
*1540 FILLER_0_10_21
*1541 FILLER_0_10_237
*1542 FILLER_0_10_29
*1543 FILLER_0_10_3
*1544 FILLER_0_10_307
*1545 FILLER_0_10_309
*1546 FILLER_0_10_85
*1547 FILLER_0_11_10
*1548 FILLER_0_11_132
*1549 FILLER_0_11_140
*1550 FILLER_0_11_175
*1551 FILLER_0_11_223
*1552 FILLER_0_11_225
*1553 FILLER_0_11_258
*1554 FILLER_0_11_281
*1555 FILLER_0_11_3
*1556 FILLER_0_11_314
*1557 FILLER_0_11_334
*1558 FILLER_0_11_44
*1559 FILLER_0_11_70
*1560 FILLER_0_12_163
*1561 FILLER_0_12_188
*1562 FILLER_0_12_19
*1563 FILLER_0_12_197
*1564 FILLER_0_12_208
*1565 FILLER_0_12_249
*1566 FILLER_0_12_307
*1567 FILLER_0_12_309
*1568 FILLER_0_12_333
*1569 FILLER_0_12_85
*1570 FILLER_0_13_102
*1571 FILLER_0_13_110
*1572 FILLER_0_13_138
*1573 FILLER_0_13_160
*1574 FILLER_0_13_194
*1575 FILLER_0_13_214
*1576 FILLER_0_13_231
*1577 FILLER_0_13_3
*1578 FILLER_0_13_310
*1579 FILLER_0_13_55
*1580 FILLER_0_13_69
*1581 FILLER_0_13_95
*1582 FILLER_0_14_109
*1583 FILLER_0_14_147
*1584 FILLER_0_14_24
*1585 FILLER_0_14_251
*1586 FILLER_0_14_277
*1587 FILLER_0_14_3
*1588 FILLER_0_14_305
*1589 FILLER_0_14_309
*1590 FILLER_0_14_334
*1591 FILLER_0_14_58
*1592 FILLER_0_14_69
*1593 FILLER_0_14_79
*1594 FILLER_0_14_91
*1595 FILLER_0_15_111
*1596 FILLER_0_15_131
*1597 FILLER_0_15_149
*1598 FILLER_0_15_166
*1599 FILLER_0_15_263
*1600 FILLER_0_15_3
*1601 FILLER_0_15_313
*1602 FILLER_0_15_43
*1603 FILLER_0_15_66
*1604 FILLER_0_15_72
*1605 FILLER_0_15_83
*1606 FILLER_0_16_139
*1607 FILLER_0_16_141
*1608 FILLER_0_16_159
*1609 FILLER_0_16_174
*1610 FILLER_0_16_189
*1611 FILLER_0_16_197
*1612 FILLER_0_16_26
*1613 FILLER_0_16_3
*1614 FILLER_0_16_307
*1615 FILLER_0_16_333
*1616 FILLER_0_16_57
*1617 FILLER_0_16_70
*1618 FILLER_0_16_76
*1619 FILLER_0_16_82
*1620 FILLER_0_16_88
*1621 FILLER_0_17_106
*1622 FILLER_0_17_139
*1623 FILLER_0_17_169
*1624 FILLER_0_17_179
*1625 FILLER_0_17_183
*1626 FILLER_0_17_19
*1627 FILLER_0_17_202
*1628 FILLER_0_17_217
*1629 FILLER_0_17_257
*1630 FILLER_0_17_3
*1631 FILLER_0_17_32
*1632 FILLER_0_17_334
*1633 FILLER_0_17_46
*1634 FILLER_0_17_71
*1635 FILLER_0_17_82
*1636 FILLER_0_17_93
*1637 FILLER_0_18_109
*1638 FILLER_0_18_119
*1639 FILLER_0_18_125
*1640 FILLER_0_18_138
*1641 FILLER_0_18_141
*1642 FILLER_0_18_171
*1643 FILLER_0_18_230
*1644 FILLER_0_18_291
*1645 FILLER_0_18_3
*1646 FILLER_0_18_317
*1647 FILLER_0_18_334
*1648 FILLER_0_18_34
*1649 FILLER_0_18_43
*1650 FILLER_0_18_53
*1651 FILLER_0_18_79
*1652 FILLER_0_18_83
*1653 FILLER_0_18_85
*1654 FILLER_0_18_89
*1655 FILLER_0_18_9
*1656 FILLER_0_18_93
*1657 FILLER_0_19_109
*1658 FILLER_0_19_116
*1659 FILLER_0_19_125
*1660 FILLER_0_19_142
*1661 FILLER_0_19_158
*1662 FILLER_0_19_166
*1663 FILLER_0_19_17
*1664 FILLER_0_19_189
*1665 FILLER_0_19_198
*1666 FILLER_0_19_223
*1667 FILLER_0_19_25
*1668 FILLER_0_19_270
*1669 FILLER_0_19_29
*1670 FILLER_0_19_3
*1671 FILLER_0_19_35
*1672 FILLER_0_19_45
*1673 FILLER_0_19_54
*1674 FILLER_0_19_68
*1675 FILLER_0_19_76
*1676 FILLER_0_19_80
*1677 FILLER_0_19_9
*1678 FILLER_0_19_99
*1679 FILLER_0_1_113
*1680 FILLER_0_1_132
*1681 FILLER_0_1_165
*1682 FILLER_0_1_223
*1683 FILLER_0_1_279
*1684 FILLER_0_1_287
*1685 FILLER_0_1_297
*1686 FILLER_0_1_3
*1687 FILLER_0_1_313
*1688 FILLER_0_1_322
*1689 FILLER_0_1_57
*1690 FILLER_0_1_9
*1691 FILLER_0_20_131
*1692 FILLER_0_20_139
*1693 FILLER_0_20_14
*1694 FILLER_0_20_146
*1695 FILLER_0_20_160
*1696 FILLER_0_20_168
*1697 FILLER_0_20_194
*1698 FILLER_0_20_197
*1699 FILLER_0_20_215
*1700 FILLER_0_20_23
*1701 FILLER_0_20_232
*1702 FILLER_0_20_261
*1703 FILLER_0_20_27
*1704 FILLER_0_20_278
*1705 FILLER_0_20_29
*1706 FILLER_0_20_3
*1707 FILLER_0_20_315
*1708 FILLER_0_20_52
*1709 FILLER_0_20_56
*1710 FILLER_0_20_79
*1711 FILLER_0_20_83
*1712 FILLER_0_20_88
*1713 FILLER_0_20_96
*1714 FILLER_0_21_109
*1715 FILLER_0_21_11
*1716 FILLER_0_21_113
*1717 FILLER_0_21_125
*1718 FILLER_0_21_129
*1719 FILLER_0_21_135
*1720 FILLER_0_21_140
*1721 FILLER_0_21_144
*1722 FILLER_0_21_151
*1723 FILLER_0_21_163
*1724 FILLER_0_21_167
*1725 FILLER_0_21_197
*1726 FILLER_0_21_202
*1727 FILLER_0_21_279
*1728 FILLER_0_21_3
*1729 FILLER_0_21_30
*1730 FILLER_0_21_52
*1731 FILLER_0_21_72
*1732 FILLER_0_21_81
*1733 FILLER_0_21_92
*1734 FILLER_0_22_139
*1735 FILLER_0_22_147
*1736 FILLER_0_22_170
*1737 FILLER_0_22_193
*1738 FILLER_0_22_235
*1739 FILLER_0_22_27
*1740 FILLER_0_22_29
*1741 FILLER_0_22_3
*1742 FILLER_0_22_325
*1743 FILLER_0_22_48
*1744 FILLER_0_22_56
*1745 FILLER_0_22_67
*1746 FILLER_0_22_73
*1747 FILLER_0_22_77
*1748 FILLER_0_23_103
*1749 FILLER_0_23_124
*1750 FILLER_0_23_133
*1751 FILLER_0_23_143
*1752 FILLER_0_23_151
*1753 FILLER_0_23_165
*1754 FILLER_0_23_169
*1755 FILLER_0_23_177
*1756 FILLER_0_23_209
*1757 FILLER_0_23_217
*1758 FILLER_0_23_223
*1759 FILLER_0_23_23
*1760 FILLER_0_23_250
*1761 FILLER_0_23_3
*1762 FILLER_0_23_31
*1763 FILLER_0_23_313
*1764 FILLER_0_23_46
*1765 FILLER_0_23_54