*SPEF "ieee 1481-1999"
*DESIGN "tt_um_dlmiles_muldiv8_sky130faha"
*DATE "20:02:41 Thursday April 18, 2024"
*VENDOR "The OpenROAD Project"
*PROGRAM "OpenROAD"
*VERSION "0889970d1790a2617e69f253221b8bd7626e51dc"
*DESIGN_FLOW "NAME_SCOPE LOCAL" "PIN_CAP NONE"
*DIVIDER /
*DELIMITER :
*BUS_DELIMITER []
*T_UNIT 1 NS
*C_UNIT 1 PF
*R_UNIT 1 OHM
*L_UNIT 1 HENRY

*NAME_MAP
*3 clk
*4 ena
*5 rst_n
*6 ui_in[0]
*7 ui_in[1]
*8 ui_in[2]
*9 ui_in[3]
*10 ui_in[4]
*11 ui_in[5]
*12 ui_in[6]
*13 ui_in[7]
*14 uio_in[0]
*15 uio_in[1]
*16 uio_in[2]
*17 uio_in[3]
*18 uio_in[4]
*19 uio_in[5]
*20 uio_in[6]
*21 uio_in[7]
*22 net32
*23 net33
*24 net34
*25 net35
*26 net64
*27 net65
*28 net36
*29 net37
*30 net38
*31 net39
*32 net40
*33 net41
*34 uio_out[4]
*35 uio_out[5]
*36 net42
*37 net43
*38 uo_out[0]
*39 uo_out[1]
*40 uo_out[2]
*41 uo_out[3]
*42 uo_out[4]
*43 uo_out[5]
*44 uo_out[6]
*45 uo_out[7]
*46 _001_
*47 _002_
*48 _003_
*49 _004_
*50 _005_
*51 _006_
*52 _007_
*53 _008_
*54 _009_
*55 _010_
*56 _011_
*57 _012_
*58 _013_
*59 _014_
*60 _015_
*61 _016_
*62 _017_
*63 _018_
*64 _019_
*65 _020_
*66 _021_
*67 _022_
*68 _023_
*69 _024_
*70 _025_
*71 _026_
*72 _027_
*73 _028_
*74 _029_
*75 _030_
*76 _031_
*77 _032_
*78 _033_
*79 _034_
*80 _035_
*81 _036_
*82 _037_
*83 _038_
*84 _039_
*85 _040_
*86 _041_
*87 _042_
*88 _043_
*89 _044_
*90 _045_
*91 _046_
*92 _047_
*93 _048_
*94 _049_
*95 _050_
*96 _051_
*97 _052_
*98 _053_
*99 _054_
*100 _055_
*101 _056_
*102 _057_
*103 _058_
*104 _059_
*105 _060_
*106 _061_
*107 _062_
*108 _063_
*109 _064_
*110 _065_
*111 _066_
*112 _067_
*113 _068_
*114 _069_
*115 _070_
*116 _071_
*117 _072_
*118 _073_
*119 _074_
*120 _075_
*121 _076_
*122 _077_
*123 _078_
*124 _079_
*125 _080_
*126 _081_
*127 _082_
*128 _083_
*129 _084_
*130 _085_
*131 _086_
*132 _087_
*133 _088_
*134 _089_
*135 _090_
*136 _091_
*137 _092_
*138 _093_
*139 _094_
*140 _095_
*141 _096_
*142 _097_
*143 _098_
*144 _099_
*145 _100_
*146 _101_
*147 _102_
*148 _103_
*149 _104_
*150 _105_
*151 _106_
*152 _107_
*153 _108_
*154 _109_
*155 _110_
*156 _111_
*157 _112_
*158 _113_
*159 _114_
*160 _115_
*161 _116_
*162 _117_
*163 _118_
*164 _119_
*165 _120_
*166 _121_
*167 _122_
*168 _123_
*169 _124_
*170 _125_
*171 _126_
*172 _127_
*173 _128_
*174 _129_
*175 _130_
*176 _131_
*177 _132_
*178 _133_
*179 _134_
*180 _135_
*181 _136_
*182 _137_
*183 _138_
*184 _139_
*185 _140_
*186 _141_
*187 _142_
*188 _143_
*189 _144_
*190 _145_
*191 _146_
*192 _147_
*193 _148_
*194 _149_
*195 _150_
*196 _151_
*197 _152_
*198 _153_
*199 _154_
*200 _155_
*201 _156_
*202 _157_
*203 _158_
*204 _159_
*205 _160_
*206 _161_
*207 _162_
*208 _163_
*209 _164_
*210 _165_
*211 _166_
*212 _167_
*213 _168_
*214 _169_
*215 _170_
*216 _171_
*217 _172_
*218 _173_
*219 _174_
*220 _175_
*221 _176_
*222 _177_
*223 _178_
*224 _179_
*225 _180_
*226 _181_
*227 _182_
*228 _183_
*229 _184_
*230 _185_
*231 _186_
*232 _187_
*233 _188_
*234 _189_
*235 _190_
*236 _191_
*237 _192_
*238 _193_
*239 _194_
*240 _195_
*241 _196_
*242 _197_
*243 _198_
*244 _199_
*245 _200_
*246 _201_
*247 _202_
*248 _203_
*249 _204_
*250 _205_
*251 _206_
*252 _207_
*253 _208_
*254 _209_
*255 _210_
*256 _211_
*257 _212_
*258 _213_
*259 _214_
*260 _215_
*261 _216_
*262 _217_
*263 _218_
*264 _219_
*265 _220_
*266 _221_
*267 _222_
*268 _223_
*269 _224_
*270 _225_
*271 _226_
*272 _227_
*273 _228_
*274 _229_
*275 _230_
*276 _231_
*277 _232_
*278 _233_
*279 _234_
*280 _235_
*281 _236_
*282 _237_
*283 _238_
*284 _239_
*285 _240_
*286 _241_
*287 _242_
*288 _243_
*289 _244_
*290 _245_
*291 _246_
*292 _247_
*293 _248_
*294 _249_
*295 _250_
*296 _251_
*297 _252_
*298 _253_
*299 _254_
*300 _255_
*301 _256_
*302 _257_
*303 _258_
*304 _259_
*305 _260_
*306 _261_
*307 _262_
*308 clknet_0_clk
*309 clknet_1_0__leaf_clk
*310 clknet_1_1__leaf_clk
*311 muldiv\.a0_0\.GATE
*312 muldiv\.a0_0\.Q
*313 muldiv\.a0_1\.Q
*314 muldiv\.a0_2\.Q
*315 muldiv\.a0_3\.Q
*316 muldiv\.a0_4\.Q
*317 muldiv\.a0_5\.Q
*318 muldiv\.a0_6\.Q
*319 muldiv\.a0_7\.Q
*320 muldiv\.a1_0\.GATE
*321 muldiv\.a1_0\.Q
*322 muldiv\.a1_1\.Q
*323 muldiv\.a1_2\.Q
*324 muldiv\.a1_3\.Q
*325 muldiv\.a1_4\.Q
*326 muldiv\.a1_5\.Q
*327 muldiv\.a1_6\.Q
*328 muldiv\.a1_7\.Q
*329 muldiv\.div2reg
*330 muldiv\.div8\.DU_Q0D0d0\.fA\.A
*331 muldiv\.div8\.DU_Q0D0d0\.fA\.B
*332 muldiv\.div8\.DU_Q0D0d0\.fA\.CIN
*333 muldiv\.div8\.DU_Q0D0d0\.fA\.COUT
*334 muldiv\.div8\.DU_Q0D0d0\.fA\.SUM
*335 muldiv\.div8\.DU_Q0D0d0\.io_sel
*336 muldiv\.div8\.DU_Q0D0d1\.fA\.A
*337 muldiv\.div8\.DU_Q0D0d1\.fA\.B
*338 muldiv\.div8\.DU_Q0D0d1\.fA\.COUT
*339 muldiv\.div8\.DU_Q0D0d1\.fA\.SUM
*340 muldiv\.div8\.DU_Q0D0d10_EXT\.fA\.A
*341 muldiv\.div8\.DU_Q0D0d10_EXT\.fA\.CIN
*342 muldiv\.div8\.DU_Q0D0d10_EXT\.fA\.COUT
*343 muldiv\.div8\.DU_Q0D0d10_EXT\.fA\.SUM
*344 muldiv\.div8\.DU_Q0D0d11_EXT\.fA\.A
*345 muldiv\.div8\.DU_Q0D0d11_EXT\.fA\.COUT
*346 muldiv\.div8\.DU_Q0D0d11_EXT\.fA\.SUM
*347 muldiv\.div8\.DU_Q0D0d12_EXT\.fA\.A
*348 muldiv\.div8\.DU_Q0D0d12_EXT\.fA\.SUM
*349 muldiv\.div8\.DU_Q0D0d2\.fA\.A
*350 muldiv\.div8\.DU_Q0D0d2\.fA\.B
*351 muldiv\.div8\.DU_Q0D0d2\.fA\.COUT
*352 muldiv\.div8\.DU_Q0D0d2\.fA\.SUM
*353 muldiv\.div8\.DU_Q0D0d3\.fA\.A
*354 muldiv\.div8\.DU_Q0D0d3\.fA\.B
*355 muldiv\.div8\.DU_Q0D0d3\.fA\.COUT
*356 muldiv\.div8\.DU_Q0D0d3\.fA\.SUM
*357 muldiv\.div8\.DU_Q0D0d4\.fA\.A
*358 muldiv\.div8\.DU_Q0D0d4\.fA\.B
*359 muldiv\.div8\.DU_Q0D0d4\.fA\.COUT
*360 muldiv\.div8\.DU_Q0D0d4\.fA\.SUM
*361 muldiv\.div8\.DU_Q0D0d5\.fA\.A
*362 muldiv\.div8\.DU_Q0D0d5\.fA\.B
*363 muldiv\.div8\.DU_Q0D0d5\.fA\.COUT
*364 muldiv\.div8\.DU_Q0D0d5\.fA\.SUM
*365 muldiv\.div8\.DU_Q0D0d6\.fA\.A
*366 muldiv\.div8\.DU_Q0D0d6\.fA\.B
*367 muldiv\.div8\.DU_Q0D0d6\.fA\.COUT
*368 muldiv\.div8\.DU_Q0D0d6\.fA\.SUM
*369 muldiv\.div8\.DU_Q0D0d7\.fA\.A
*370 muldiv\.div8\.DU_Q0D0d7\.fA\.B
*371 muldiv\.div8\.DU_Q0D0d7\.fA\.COUT
*372 muldiv\.div8\.DU_Q0D0d7\.fA\.SUM
*373 muldiv\.div8\.DU_Q0D0d8_EXT\.fA\.A
*374 muldiv\.div8\.DU_Q0D0d8_EXT\.fA\.COUT
*375 muldiv\.div8\.DU_Q0D0d8_EXT\.fA\.SUM
*376 muldiv\.div8\.DU_Q0D0d9_EXT\.fA\.A
*377 muldiv\.div8\.DU_Q0D0d9_EXT\.fA\.SUM
*378 muldiv\.div8\.DU_Q1D1d0\.fA\.A
*379 muldiv\.div8\.DU_Q1D1d0\.fA\.COUT
*380 muldiv\.div8\.DU_Q1D1d0\.fA\.SUM
*381 muldiv\.div8\.DU_Q1D1d0\.io_sel
*382 muldiv\.div8\.DU_Q1D1d1\.fA\.A
*383 muldiv\.div8\.DU_Q1D1d1\.fA\.COUT
*384 muldiv\.div8\.DU_Q1D1d1\.fA\.SUM
*385 muldiv\.div8\.DU_Q1D1d10_EXT\.fA\.A
*386 muldiv\.div8\.DU_Q1D1d10_EXT\.fA\.CIN
*387 muldiv\.div8\.DU_Q1D1d10_EXT\.fA\.COUT
*388 muldiv\.div8\.DU_Q1D1d10_EXT\.fA\.SUM
*389 muldiv\.div8\.DU_Q1D1d11_EXT\.fA\.A
*390 muldiv\.div8\.DU_Q1D1d11_EXT\.fA\.COUT
*391 muldiv\.div8\.DU_Q1D1d11_EXT\.fA\.SUM
*392 muldiv\.div8\.DU_Q1D1d12_EXT\.fA\.A
*393 muldiv\.div8\.DU_Q1D1d12_EXT\.fA\.SUM
*394 muldiv\.div8\.DU_Q1D1d2\.fA\.A
*395 muldiv\.div8\.DU_Q1D1d2\.fA\.COUT
*396 muldiv\.div8\.DU_Q1D1d2\.fA\.SUM
*397 muldiv\.div8\.DU_Q1D1d3\.fA\.A
*398 muldiv\.div8\.DU_Q1D1d3\.fA\.COUT
*399 muldiv\.div8\.DU_Q1D1d3\.fA\.SUM
*400 muldiv\.div8\.DU_Q1D1d4\.fA\.A
*401 muldiv\.div8\.DU_Q1D1d4\.fA\.COUT
*402 muldiv\.div8\.DU_Q1D1d4\.fA\.SUM
*403 muldiv\.div8\.DU_Q1D1d5\.fA\.A
*404 muldiv\.div8\.DU_Q1D1d5\.fA\.COUT
*405 muldiv\.div8\.DU_Q1D1d5\.fA\.SUM
*406 muldiv\.div8\.DU_Q1D1d6\.fA\.A
*407 muldiv\.div8\.DU_Q1D1d6\.fA\.COUT
*408 muldiv\.div8\.DU_Q1D1d6\.fA\.SUM
*409 muldiv\.div8\.DU_Q1D1d7\.fA\.A
*410 muldiv\.div8\.DU_Q1D1d7\.fA\.COUT
*411 muldiv\.div8\.DU_Q1D1d7\.fA\.SUM
*412 muldiv\.div8\.DU_Q1D1d8_EXT\.fA\.A
*413 muldiv\.div8\.DU_Q1D1d8_EXT\.fA\.COUT
*414 muldiv\.div8\.DU_Q1D1d8_EXT\.fA\.SUM
*415 muldiv\.div8\.DU_Q1D1d9_EXT\.fA\.A
*416 muldiv\.div8\.DU_Q1D1d9_EXT\.fA\.SUM
*417 muldiv\.div8\.DU_Q2D2d0\.fA\.A
*418 muldiv\.div8\.DU_Q2D2d0\.fA\.COUT
*419 muldiv\.div8\.DU_Q2D2d0\.fA\.SUM
*420 muldiv\.div8\.DU_Q2D2d0\.io_sel
*421 muldiv\.div8\.DU_Q2D2d1\.fA\.A
*422 muldiv\.div8\.DU_Q2D2d1\.fA\.COUT
*423 muldiv\.div8\.DU_Q2D2d1\.fA\.SUM
*424 muldiv\.div8\.DU_Q2D2d10_EXT\.fA\.A
*425 muldiv\.div8\.DU_Q2D2d10_EXT\.fA\.CIN
*426 muldiv\.div8\.DU_Q2D2d10_EXT\.fA\.COUT
*427 muldiv\.div8\.DU_Q2D2d10_EXT\.fA\.SUM
*428 muldiv\.div8\.DU_Q2D2d11_EXT\.fA\.A
*429 muldiv\.div8\.DU_Q2D2d11_EXT\.fA\.SUM
*430 muldiv\.div8\.DU_Q2D2d2\.fA\.A
*431 muldiv\.div8\.DU_Q2D2d2\.fA\.COUT
*432 muldiv\.div8\.DU_Q2D2d2\.fA\.SUM
*433 muldiv\.div8\.DU_Q2D2d3\.fA\.A
*434 muldiv\.div8\.DU_Q2D2d3\.fA\.COUT
*435 muldiv\.div8\.DU_Q2D2d3\.fA\.SUM
*436 muldiv\.div8\.DU_Q2D2d4\.fA\.A
*437 muldiv\.div8\.DU_Q2D2d4\.fA\.COUT
*438 muldiv\.div8\.DU_Q2D2d4\.fA\.SUM
*439 muldiv\.div8\.DU_Q2D2d5\.fA\.A
*440 muldiv\.div8\.DU_Q2D2d5\.fA\.COUT
*441 muldiv\.div8\.DU_Q2D2d5\.fA\.SUM
*442 muldiv\.div8\.DU_Q2D2d6\.fA\.A
*443 muldiv\.div8\.DU_Q2D2d6\.fA\.COUT
*444 muldiv\.div8\.DU_Q2D2d6\.fA\.SUM
*445 muldiv\.div8\.DU_Q2D2d7\.fA\.A
*446 muldiv\.div8\.DU_Q2D2d7\.fA\.COUT
*447 muldiv\.div8\.DU_Q2D2d7\.fA\.SUM
*448 muldiv\.div8\.DU_Q2D2d8_EXT\.fA\.A
*449 muldiv\.div8\.DU_Q2D2d8_EXT\.fA\.COUT
*450 muldiv\.div8\.DU_Q2D2d8_EXT\.fA\.SUM
*451 muldiv\.div8\.DU_Q2D2d9_EXT\.fA\.A
*452 muldiv\.div8\.DU_Q2D2d9_EXT\.fA\.SUM
*453 muldiv\.div8\.DU_Q3D3d0\.fA\.A
*454 muldiv\.div8\.DU_Q3D3d0\.fA\.COUT
*455 muldiv\.div8\.DU_Q3D3d0\.fA\.SUM
*456 muldiv\.div8\.DU_Q3D3d0\.io_sel
*457 muldiv\.div8\.DU_Q3D3d1\.fA\.A
*458 muldiv\.div8\.DU_Q3D3d1\.fA\.COUT
*459 muldiv\.div8\.DU_Q3D3d1\.fA\.SUM
*460 muldiv\.div8\.DU_Q3D3d10_EXT\.fA\.A
*461 muldiv\.div8\.DU_Q3D3d10_EXT\.fA\.CIN
*462 muldiv\.div8\.DU_Q3D3d10_EXT\.fA\.SUM
*463 muldiv\.div8\.DU_Q3D3d2\.fA\.A
*464 muldiv\.div8\.DU_Q3D3d2\.fA\.COUT
*465 muldiv\.div8\.DU_Q3D3d2\.fA\.SUM
*466 muldiv\.div8\.DU_Q3D3d3\.fA\.A
*467 muldiv\.div8\.DU_Q3D3d3\.fA\.COUT
*468 muldiv\.div8\.DU_Q3D3d3\.fA\.SUM
*469 muldiv\.div8\.DU_Q3D3d4\.fA\.A
*470 muldiv\.div8\.DU_Q3D3d4\.fA\.COUT
*471 muldiv\.div8\.DU_Q3D3d4\.fA\.SUM
*472 muldiv\.div8\.DU_Q3D3d5\.fA\.A
*473 muldiv\.div8\.DU_Q3D3d5\.fA\.COUT
*474 muldiv\.div8\.DU_Q3D3d5\.fA\.SUM
*475 muldiv\.div8\.DU_Q3D3d6\.fA\.A
*476 muldiv\.div8\.DU_Q3D3d6\.fA\.COUT
*477 muldiv\.div8\.DU_Q3D3d6\.fA\.SUM
*478 muldiv\.div8\.DU_Q3D3d7\.fA\.A
*479 muldiv\.div8\.DU_Q3D3d7\.fA\.COUT
*480 muldiv\.div8\.DU_Q3D3d7\.fA\.SUM
*481 muldiv\.div8\.DU_Q3D3d8_EXT\.fA\.A
*482 muldiv\.div8\.DU_Q3D3d8_EXT\.fA\.COUT
*483 muldiv\.div8\.DU_Q3D3d8_EXT\.fA\.SUM
*484 muldiv\.div8\.DU_Q3D3d9_EXT\.fA\.A
*485 muldiv\.div8\.DU_Q3D3d9_EXT\.fA\.SUM
*486 muldiv\.div8\.DU_Q4D4d0\.fA\.A
*487 muldiv\.div8\.DU_Q4D4d0\.fA\.COUT
*488 muldiv\.div8\.DU_Q4D4d0\.fA\.SUM
*489 muldiv\.div8\.DU_Q4D4d0\.io_sel
*490 muldiv\.div8\.DU_Q4D4d1\.fA\.A
*491 muldiv\.div8\.DU_Q4D4d1\.fA\.COUT
*492 muldiv\.div8\.DU_Q4D4d1\.fA\.SUM
*493 muldiv\.div8\.DU_Q4D4d2\.fA\.A
*494 muldiv\.div8\.DU_Q4D4d2\.fA\.COUT
*495 muldiv\.div8\.DU_Q4D4d2\.fA\.SUM
*496 muldiv\.div8\.DU_Q4D4d3\.fA\.A
*497 muldiv\.div8\.DU_Q4D4d3\.fA\.COUT
*498 muldiv\.div8\.DU_Q4D4d3\.fA\.SUM
*499 muldiv\.div8\.DU_Q4D4d4\.fA\.A
*500 muldiv\.div8\.DU_Q4D4d4\.fA\.COUT
*501 muldiv\.div8\.DU_Q4D4d4\.fA\.SUM
*502 muldiv\.div8\.DU_Q4D4d5\.fA\.A
*503 muldiv\.div8\.DU_Q4D4d5\.fA\.COUT
*504 muldiv\.div8\.DU_Q4D4d5\.fA\.SUM
*505 muldiv\.div8\.DU_Q4D4d6\.fA\.A
*506 muldiv\.div8\.DU_Q4D4d6\.fA\.COUT
*507 muldiv\.div8\.DU_Q4D4d6\.fA\.SUM
*508 muldiv\.div8\.DU_Q4D4d7\.fA\.A
*509 muldiv\.div8\.DU_Q4D4d7\.fA\.COUT
*510 muldiv\.div8\.DU_Q4D4d7\.fA\.SUM
*511 muldiv\.div8\.DU_Q4D4d8_EXT\.fA\.A
*512 muldiv\.div8\.DU_Q4D4d8_EXT\.fA\.COUT
*513 muldiv\.div8\.DU_Q4D4d8_EXT\.fA\.SUM
*514 muldiv\.div8\.DU_Q4D4d9_EXT\.fA\.A
*515 muldiv\.div8\.DU_Q4D4d9_EXT\.fA\.SUM
*516 muldiv\.div8\.DU_Q5D5d0\.fA\.A
*517 muldiv\.div8\.DU_Q5D5d0\.fA\.COUT
*518 muldiv\.div8\.DU_Q5D5d0\.fA\.SUM
*519 muldiv\.div8\.DU_Q5D5d0\.io_sel
*520 muldiv\.div8\.DU_Q5D5d1\.fA\.A
*521 muldiv\.div8\.DU_Q5D5d1\.fA\.COUT
*522 muldiv\.div8\.DU_Q5D5d1\.fA\.SUM
*523 muldiv\.div8\.DU_Q5D5d2\.fA\.A
*524 muldiv\.div8\.DU_Q5D5d2\.fA\.COUT
*525 muldiv\.div8\.DU_Q5D5d2\.fA\.SUM
*526 muldiv\.div8\.DU_Q5D5d3\.fA\.A
*527 muldiv\.div8\.DU_Q5D5d3\.fA\.COUT
*528 muldiv\.div8\.DU_Q5D5d3\.fA\.SUM
*529 muldiv\.div8\.DU_Q5D5d4\.fA\.A
*530 muldiv\.div8\.DU_Q5D5d4\.fA\.COUT
*531 muldiv\.div8\.DU_Q5D5d4\.fA\.SUM
*532 muldiv\.div8\.DU_Q5D5d5\.fA\.A
*533 muldiv\.div8\.DU_Q5D5d5\.fA\.COUT
*534 muldiv\.div8\.DU_Q5D5d5\.fA\.SUM
*535 muldiv\.div8\.DU_Q5D5d6\.fA\.A
*536 muldiv\.div8\.DU_Q5D5d6\.fA\.COUT
*537 muldiv\.div8\.DU_Q5D5d6\.fA\.SUM
*538 muldiv\.div8\.DU_Q5D5d7\.fA\.A
*539 muldiv\.div8\.DU_Q5D5d7\.fA\.COUT
*540 muldiv\.div8\.DU_Q5D5d7\.fA\.SUM
*541 muldiv\.div8\.DU_Q5D5d8_EXT\.fA\.A
*542 muldiv\.div8\.DU_Q5D5d8_EXT\.fA\.SUM
*543 muldiv\.div8\.DU_Q6D6d0\.fA\.A
*544 muldiv\.div8\.DU_Q6D6d0\.fA\.COUT
*545 muldiv\.div8\.DU_Q6D6d0\.fA\.SUM
*546 muldiv\.div8\.DU_Q6D6d0\.io_sel
*547 muldiv\.div8\.DU_Q6D6d1\.fA\.A
*548 muldiv\.div8\.DU_Q6D6d1\.fA\.COUT
*549 muldiv\.div8\.DU_Q6D6d1\.fA\.SUM
*550 muldiv\.div8\.DU_Q6D6d2\.fA\.A
*551 muldiv\.div8\.DU_Q6D6d2\.fA\.COUT
*552 muldiv\.div8\.DU_Q6D6d2\.fA\.SUM
*553 muldiv\.div8\.DU_Q6D6d3\.fA\.A
*554 muldiv\.div8\.DU_Q6D6d3\.fA\.COUT
*555 muldiv\.div8\.DU_Q6D6d3\.fA\.SUM
*556 muldiv\.div8\.DU_Q6D6d4\.fA\.A
*557 muldiv\.div8\.DU_Q6D6d4\.fA\.COUT
*558 muldiv\.div8\.DU_Q6D6d4\.fA\.SUM
*559 muldiv\.div8\.DU_Q6D6d5\.fA\.A
*560 muldiv\.div8\.DU_Q6D6d5\.fA\.COUT
*561 muldiv\.div8\.DU_Q6D6d5\.fA\.SUM
*562 muldiv\.div8\.DU_Q6D6d6\.fA\.A
*563 muldiv\.div8\.DU_Q6D6d6\.fA\.COUT
*564 muldiv\.div8\.DU_Q6D6d6\.fA\.SUM
*565 muldiv\.div8\.DU_Q6D6d7\.fA\.A
*566 muldiv\.div8\.DU_Q6D6d7\.fA\.SUM
*567 muldiv\.div8\.DU_Q7D7d0\.fA\.A
*568 muldiv\.div8\.DU_Q7D7d0\.fA\.COUT
*569 muldiv\.div8\.DU_Q7D7d0\.fA\.SUM
*570 muldiv\.div8\.DU_Q7D7d0\.io_sel
*571 muldiv\.div8\.DU_Q7D7d1\.fA\.COUT
*572 muldiv\.div8\.DU_Q7D7d1\.fA\.SUM
*573 muldiv\.div8\.DU_Q7D7d2\.fA\.COUT
*574 muldiv\.div8\.DU_Q7D7d2\.fA\.SUM
*575 muldiv\.div8\.DU_Q7D7d3\.fA\.COUT
*576 muldiv\.div8\.DU_Q7D7d3\.fA\.SUM
*577 muldiv\.div8\.DU_Q7D7d4\.fA\.COUT
*578 muldiv\.div8\.DU_Q7D7d4\.fA\.SUM
*579 muldiv\.div8\.DU_Q7D7d5\.fA\.COUT
*580 muldiv\.div8\.DU_Q7D7d5\.fA\.SUM
*581 muldiv\.div8\.DU_Q7D7d6\.fA\.COUT
*582 muldiv\.div8\.DU_Q7D7d6\.fA\.SUM
*583 muldiv\.div8\.DU_Q7D7d7\.fA\.SUM
*584 muldiv\.div8\.HAD_DVD_TWOS_0\.A
*585 muldiv\.div8\.HAD_DVD_TWOS_0\.B
*586 muldiv\.div8\.HAD_DVD_TWOS_0\.COUT
*587 muldiv\.div8\.HAD_DVD_TWOS_1\.A
*588 muldiv\.div8\.HAD_DVD_TWOS_1\.COUT
*589 muldiv\.div8\.HAD_DVD_TWOS_2\.A
*590 muldiv\.div8\.HAD_DVD_TWOS_2\.COUT
*591 muldiv\.div8\.HAD_DVD_TWOS_3\.A
*592 muldiv\.div8\.HAD_DVD_TWOS_3\.COUT
*593 muldiv\.div8\.HAD_DVD_TWOS_4\.A
*594 muldiv\.div8\.HAD_DVD_TWOS_4\.COUT
*595 muldiv\.div8\.HAD_DVD_TWOS_5\.A
*596 muldiv\.div8\.HAD_DVD_TWOS_5\.COUT
*597 muldiv\.div8\.HAD_DVD_TWOS_6\.A
*598 muldiv\.div8\.HAD_DVD_TWOS_6\.COUT
*599 muldiv\.div8\.HAD_DVD_TWOS_7\.A
*600 muldiv\.div8\.HAD_DVD_TWOS_7\.COUT
*601 muldiv\.div8\.HAQ0_SIGN\.A
*602 muldiv\.div8\.HAQ0_SIGN\.B
*603 muldiv\.div8\.HAQ0_SIGN\.COUT
*604 muldiv\.div8\.HAQ0_SIGN\.SUM
*605 muldiv\.div8\.HAQ1_SIGN\.A
*606 muldiv\.div8\.HAQ1_SIGN\.COUT
*607 muldiv\.div8\.HAQ1_SIGN\.SUM
*608 muldiv\.div8\.HAQ2_SIGN\.A
*609 muldiv\.div8\.HAQ2_SIGN\.COUT
*610 muldiv\.div8\.HAQ2_SIGN\.SUM
*611 muldiv\.div8\.HAQ3_SIGN\.A
*612 muldiv\.div8\.HAQ3_SIGN\.COUT
*613 muldiv\.div8\.HAQ3_SIGN\.SUM
*614 muldiv\.div8\.HAQ4_SIGN\.A
*615 muldiv\.div8\.HAQ4_SIGN\.COUT
*616 muldiv\.div8\.HAQ4_SIGN\.SUM
*617 muldiv\.div8\.HAQ5_SIGN\.A
*618 muldiv\.div8\.HAQ5_SIGN\.COUT
*619 muldiv\.div8\.HAQ5_SIGN\.SUM
*620 muldiv\.div8\.HAQ6_SIGN\.A
*621 muldiv\.div8\.HAQ6_SIGN\.COUT
*622 muldiv\.div8\.HAQ6_SIGN\.SUM
*623 muldiv\.div8\.HAQ7_SIGN\.A
*624 muldiv\.div8\.HAQ7_SIGN\.COUT
*625 muldiv\.div8\.HAQ7_SIGN\.SUM
*626 muldiv\.div8\.HAR0_SIGN\.A
*627 muldiv\.div8\.HAR0_SIGN\.COUT
*628 muldiv\.div8\.HAR0_SIGN\.SUM
*629 muldiv\.div8\.HAR1_SIGN\.A
*630 muldiv\.div8\.HAR1_SIGN\.COUT
*631 muldiv\.div8\.HAR1_SIGN\.SUM
*632 muldiv\.div8\.HAR2_SIGN\.A
*633 muldiv\.div8\.HAR2_SIGN\.COUT
*634 muldiv\.div8\.HAR2_SIGN\.SUM
*635 muldiv\.div8\.HAR3_SIGN\.A
*636 muldiv\.div8\.HAR3_SIGN\.COUT
*637 muldiv\.div8\.HAR3_SIGN\.SUM
*638 muldiv\.div8\.HAR4_SIGN\.A
*639 muldiv\.div8\.HAR4_SIGN\.COUT
*640 muldiv\.div8\.HAR4_SIGN\.SUM
*641 muldiv\.div8\.HAR5_SIGN\.A
*642 muldiv\.div8\.HAR5_SIGN\.COUT
*643 muldiv\.div8\.HAR5_SIGN\.SUM
*644 muldiv\.div8\.HAR6_SIGN\.A
*645 muldiv\.div8\.HAR6_SIGN\.COUT
*646 muldiv\.div8\.HAR6_SIGN\.SUM
*647 muldiv\.div8\.HAR7_SIGN\.A
*648 muldiv\.div8\.HAR7_SIGN\.COUT
*649 muldiv\.div8\.HAR7_SIGN\.SUM
*650 muldiv\.div8\.io_edivoverflow
*651 muldiv\.div8\.io_edivzero
*652 muldiv\.mul8\.A0xB1_8
*653 muldiv\.mul8\.A0xB2_16
*654 muldiv\.mul8\.A0xB3_24
*655 muldiv\.mul8\.A0xB4_32
*656 muldiv\.mul8\.A0xB5_40
*657 muldiv\.mul8\.A0xB6_48
*658 muldiv\.mul8\.A1xB0_1
*659 muldiv\.mul8\.A1xB1_9
*660 muldiv\.mul8\.A1xB2_17
*661 muldiv\.mul8\.A1xB3_25
*662 muldiv\.mul8\.A1xB4_33
*663 muldiv\.mul8\.A1xB5_41
*664 muldiv\.mul8\.A1xB6_49
*665 muldiv\.mul8\.A2xB0_2
*666 muldiv\.mul8\.A2xB1_10
*667 muldiv\.mul8\.A2xB2_18
*668 muldiv\.mul8\.A2xB3_26
*669 muldiv\.mul8\.A2xB4_34
*670 muldiv\.mul8\.A2xB5_42
*671 muldiv\.mul8\.A2xB6_50
*672 muldiv\.mul8\.A3xB0_3
*673 muldiv\.mul8\.A3xB1_11
*674 muldiv\.mul8\.A3xB2_19
*675 muldiv\.mul8\.A3xB3_27
*676 muldiv\.mul8\.A3xB4_35
*677 muldiv\.mul8\.A3xB5_43
*678 muldiv\.mul8\.A3xB6_51
*679 muldiv\.mul8\.A4xB0_4
*680 muldiv\.mul8\.A4xB1_12
*681 muldiv\.mul8\.A4xB2_20
*682 muldiv\.mul8\.A4xB3_28
*683 muldiv\.mul8\.A4xB4_36
*684 muldiv\.mul8\.A4xB5_44
*685 muldiv\.mul8\.A4xB6_52
*686 muldiv\.mul8\.A5xB0_5
*687 muldiv\.mul8\.A5xB1_13
*688 muldiv\.mul8\.A5xB2_21
*689 muldiv\.mul8\.A5xB3_29
*690 muldiv\.mul8\.A5xB4_37
*691 muldiv\.mul8\.A5xB5_45
*692 muldiv\.mul8\.A5xB6_53
*693 muldiv\.mul8\.A6xB0_6
*694 muldiv\.mul8\.A6xB1_14
*695 muldiv\.mul8\.A6xB2_22
*696 muldiv\.mul8\.A6xB3_30
*697 muldiv\.mul8\.A6xB4_38
*698 muldiv\.mul8\.A6xB5_46
*699 muldiv\.mul8\.A6xB6_54
*700 muldiv\.mul8\.A7xB0_7
*701 muldiv\.mul8\.A7xB1_15
*702 muldiv\.mul8\.A7xB2_23
*703 muldiv\.mul8\.A7xB3_31
*704 muldiv\.mul8\.A7xB4_39
*705 muldiv\.mul8\.A7xB5_47
*706 muldiv\.mul8\.A7xB6_55
*707 muldiv\.mul8\.FA_P10A3B7\.A
*708 muldiv\.mul8\.FA_P10A3B7\.B
*709 muldiv\.mul8\.FA_P10A3B7\.CIN
*710 muldiv\.mul8\.FA_P10A3B7\.COUT
*711 muldiv\.mul8\.FA_P10A3B7\.SUM
*712 muldiv\.mul8\.FA_P10A4B6\.A
*713 muldiv\.mul8\.FA_P10A4B6\.CIN
*714 muldiv\.mul8\.FA_P10A4B6\.COUT
*715 muldiv\.mul8\.FA_P10A5B5\.A
*716 muldiv\.mul8\.FA_P10A5B5\.CIN
*717 muldiv\.mul8\.FA_P10A5B5\.COUT
*718 muldiv\.mul8\.FA_P10A6B4\.A
*719 muldiv\.mul8\.FA_P10A6B4\.CIN
*720 muldiv\.mul8\.FA_P10A6B4\.COUT
*721 muldiv\.mul8\.FA_P10A7B1\.A
*722 muldiv\.mul8\.FA_P10A7B1\.B
*723 muldiv\.mul8\.FA_P10A7B1\.CIN
*724 muldiv\.mul8\.FA_P10A7B1\.COUT
*725 muldiv\.mul8\.FA_P10A7B1\.SUM
*726 muldiv\.mul8\.FA_P10A7B2\.B
*727 muldiv\.mul8\.FA_P10A7B2\.CIN
*728 muldiv\.mul8\.FA_P10A7B2\.COUT
*729 muldiv\.mul8\.FA_P10A7B2\.SUM
*730 muldiv\.mul8\.FA_P10A7B3\.CIN
*731 muldiv\.mul8\.FA_P10A7B3\.COUT
*732 muldiv\.mul8\.FA_P11A4B7\.A
*733 muldiv\.mul8\.FA_P11A4B7\.B
*734 muldiv\.mul8\.FA_P11A4B7\.COUT
*735 muldiv\.mul8\.FA_P11A4B7\.SUM
*736 muldiv\.mul8\.FA_P11A5B6\.A
*737 muldiv\.mul8\.FA_P11A5B6\.COUT
*738 muldiv\.mul8\.FA_P11A6B5\.A
*739 muldiv\.mul8\.FA_P11A6B5\.COUT
*740 muldiv\.mul8\.FA_P11A7B1\.COUT
*741 muldiv\.mul8\.FA_P11A7B1\.SUM
*742 muldiv\.mul8\.FA_P11A7B2\.COUT
*743 muldiv\.mul8\.FA_P11A7B2\.SUM
*744 muldiv\.mul8\.FA_P11A7B3\.B
*745 muldiv\.mul8\.FA_P11A7B3\.COUT
*746 muldiv\.mul8\.FA_P11A7B3\.SUM
*747 muldiv\.mul8\.FA_P11A7B4\.COUT
*748 muldiv\.mul8\.FA_P12A5B7\.A
*749 muldiv\.mul8\.FA_P12A5B7\.B
*750 muldiv\.mul8\.FA_P12A5B7\.COUT
*751 muldiv\.mul8\.FA_P12A5B7\.SUM
*752 muldiv\.mul8\.FA_P12A6B6\.A
*753 muldiv\.mul8\.FA_P12A6B6\.COUT
*754 muldiv\.mul8\.FA_P12A7B1\.COUT
*755 muldiv\.mul8\.FA_P12A7B1\.SUM
*756 muldiv\.mul8\.FA_P12A7B2\.COUT
*757 muldiv\.mul8\.FA_P12A7B2\.SUM
*758 muldiv\.mul8\.FA_P12A7B3\.COUT
*759 muldiv\.mul8\.FA_P12A7B3\.SUM
*760 muldiv\.mul8\.FA_P12A7B4\.B
*761 muldiv\.mul8\.FA_P12A7B4\.COUT
*762 muldiv\.mul8\.FA_P12A7B4\.SUM
*763 muldiv\.mul8\.FA_P12A7B5\.COUT
*764 muldiv\.mul8\.FA_P13A6B7\.A
*765 muldiv\.mul8\.FA_P13A6B7\.B
*766 muldiv\.mul8\.FA_P13A6B7\.COUT
*767 muldiv\.mul8\.FA_P13A6B7\.SUM
*768 muldiv\.mul8\.FA_P13A7B1\.COUT
*769 muldiv\.mul8\.FA_P13A7B1\.SUM
*770 muldiv\.mul8\.FA_P13A7B2\.COUT
*771 muldiv\.mul8\.FA_P13A7B2\.SUM
*772 muldiv\.mul8\.FA_P13A7B3\.COUT
*773 muldiv\.mul8\.FA_P13A7B3\.SUM
*774 muldiv\.mul8\.FA_P13A7B4\.COUT
*775 muldiv\.mul8\.FA_P13A7B4\.SUM
*776 muldiv\.mul8\.FA_P13A7B5\.B
*777 muldiv\.mul8\.FA_P13A7B5\.COUT
*778 muldiv\.mul8\.FA_P13A7B5\.SUM
*779 muldiv\.mul8\.FA_P13A7B6\.COUT
*780 muldiv\.mul8\.FA_P14A7B1\.COUT
*781 muldiv\.mul8\.FA_P14A7B1\.SUM
*782 muldiv\.mul8\.FA_P14A7B2\.COUT
*783 muldiv\.mul8\.FA_P14A7B2\.SUM
*784 muldiv\.mul8\.FA_P14A7B3\.COUT
*785 muldiv\.mul8\.FA_P14A7B3\.SUM
*786 muldiv\.mul8\.FA_P14A7B4\.COUT
*787 muldiv\.mul8\.FA_P14A7B4\.SUM
*788 muldiv\.mul8\.FA_P14A7B5\.COUT
*789 muldiv\.mul8\.FA_P14A7B5\.SUM
*790 muldiv\.mul8\.FA_P14A7B6\.B
*791 muldiv\.mul8\.FA_P14A7B6\.COUT
*792 muldiv\.mul8\.FA_P14A7B6\.SUM
*793 muldiv\.mul8\.FA_P14A7B7\.B
*794 muldiv\.mul8\.FA_P14A7B7\.COUT
*795 muldiv\.mul8\.FA_P14A7B7\.SUM
*796 muldiv\.mul8\.FA_P15A7B1\.COUT
*797 muldiv\.mul8\.FA_P15A7B1\.SUM
*798 muldiv\.mul8\.FA_P15A7B2\.COUT
*799 muldiv\.mul8\.FA_P15A7B2\.SUM
*800 muldiv\.mul8\.FA_P15A7B3\.COUT
*801 muldiv\.mul8\.FA_P15A7B3\.SUM
*802 muldiv\.mul8\.FA_P15A7B4\.COUT
*803 muldiv\.mul8\.FA_P15A7B4\.SUM
*804 muldiv\.mul8\.FA_P15A7B5\.COUT
*805 muldiv\.mul8\.FA_P15A7B5\.SUM
*806 muldiv\.mul8\.FA_P15A7B6\.COUT
*807 muldiv\.mul8\.FA_P15A7B6\.SUM
*808 muldiv\.mul8\.FA_P15A7B7\.B
*809 muldiv\.mul8\.FA_P15A7B7\.COUT
*810 muldiv\.mul8\.FA_P15A7B7\.SUM
*811 muldiv\.mul8\.FA_P2A1B1\.CIN
*812 muldiv\.mul8\.FA_P2A1B1\.COUT
*813 muldiv\.mul8\.FA_P2A1B1\.SUM
*814 muldiv\.mul8\.FA_P3A1B2\.A
*815 muldiv\.mul8\.FA_P3A1B2\.CIN
*816 muldiv\.mul8\.FA_P3A1B2\.COUT
*817 muldiv\.mul8\.FA_P3A1B2\.SUM
*818 muldiv\.mul8\.FA_P3A2B1\.COUT
*819 muldiv\.mul8\.FA_P4A1B3\.A
*820 muldiv\.mul8\.FA_P4A1B3\.CIN
*821 muldiv\.mul8\.FA_P4A1B3\.COUT
*822 muldiv\.mul8\.FA_P4A1B3\.SUM
*823 muldiv\.mul8\.FA_P4A2B2\.A
*824 muldiv\.mul8\.FA_P4A2B2\.COUT
*825 muldiv\.mul8\.FA_P4A3B1\.COUT
*826 muldiv\.mul8\.FA_P5A1B4\.A
*827 muldiv\.mul8\.FA_P5A1B4\.CIN
*828 muldiv\.mul8\.FA_P5A1B4\.COUT
*829 muldiv\.mul8\.FA_P5A1B4\.SUM
*830 muldiv\.mul8\.FA_P5A2B3\.A
*831 muldiv\.mul8\.FA_P5A2B3\.COUT
*832 muldiv\.mul8\.FA_P5A3B2\.A
*833 muldiv\.mul8\.FA_P5A3B2\.COUT
*834 muldiv\.mul8\.FA_P5A4B1\.COUT
*835 muldiv\.mul8\.FA_P6A1B5\.A
*836 muldiv\.mul8\.FA_P6A1B5\.CIN
*837 muldiv\.mul8\.FA_P6A1B5\.COUT
*838 muldiv\.mul8\.FA_P6A1B5\.SUM
*839 muldiv\.mul8\.FA_P6A2B4\.A
*840 muldiv\.mul8\.FA_P6A2B4\.COUT
*841 muldiv\.mul8\.FA_P6A3B3\.A
*842 muldiv\.mul8\.FA_P6A3B3\.COUT
*843 muldiv\.mul8\.FA_P6A4B2\.A
*844 muldiv\.mul8\.FA_P6A4B2\.COUT
*845 muldiv\.mul8\.FA_P6A5B1\.COUT
*846 muldiv\.mul8\.FA_P7A0B7\.A
*847 muldiv\.mul8\.FA_P7A0B7\.B
*848 muldiv\.mul8\.FA_P7A0B7\.COUT
*849 muldiv\.mul8\.FA_P7A0B7\.SUM
*850 muldiv\.mul8\.FA_P7A1B6\.A
*851 muldiv\.mul8\.FA_P7A1B6\.CIN
*852 muldiv\.mul8\.FA_P7A1B6\.COUT
*853 muldiv\.mul8\.FA_P7A2B5\.A
*854 muldiv\.mul8\.FA_P7A2B5\.COUT
*855 muldiv\.mul8\.FA_P7A3B4\.A
*856 muldiv\.mul8\.FA_P7A3B4\.COUT
*857 muldiv\.mul8\.FA_P7A4B3\.A
*858 muldiv\.mul8\.FA_P7A4B3\.COUT
*859 muldiv\.mul8\.FA_P7A5B2\.A
*860 muldiv\.mul8\.FA_P7A5B2\.COUT
*861 muldiv\.mul8\.FA_P7A6B1\.COUT
*862 muldiv\.mul8\.FA_P8A1B7\.A
*863 muldiv\.mul8\.FA_P8A1B7\.B
*864 muldiv\.mul8\.FA_P8A1B7\.COUT
*865 muldiv\.mul8\.FA_P8A1B7\.SUM
*866 muldiv\.mul8\.FA_P8A2B6\.A
*867 muldiv\.mul8\.FA_P8A2B6\.COUT
*868 muldiv\.mul8\.FA_P8A3B5\.A
*869 muldiv\.mul8\.FA_P8A3B5\.COUT
*870 muldiv\.mul8\.FA_P8A4B4\.A
*871 muldiv\.mul8\.FA_P8A4B4\.COUT
*872 muldiv\.mul8\.FA_P8A5B3\.A
*873 muldiv\.mul8\.FA_P8A5B3\.COUT
*874 muldiv\.mul8\.FA_P8A6B2\.A
*875 muldiv\.mul8\.FA_P8A6B2\.COUT
*876 muldiv\.mul8\.FA_P8A7B1\.COUT
*877 muldiv\.mul8\.FA_P9A2B7\.A
*878 muldiv\.mul8\.FA_P9A2B7\.B
*879 muldiv\.mul8\.FA_P9A2B7\.SUM
*880 muldiv\.mul8\.FA_P9A3B6\.A
*881 muldiv\.mul8\.FA_P9A4B5\.A
*882 muldiv\.mul8\.FA_P9A5B4\.A
*883 muldiv\.mul8\.FA_P9A6B3\.A
*884 muldiv\.mul8\.FA_P9A7B1\.SUM
*885 muldiv\.mul8\.HA_P1A0B1\.SUM
*886 muldiv\.mul8\.HA_P2A0B2\.SUM
*887 muldiv\.mul8\.HA_P3A0B3\.SUM
*888 muldiv\.mul8\.HA_P4A0B4\.SUM
*889 muldiv\.mul8\.HA_P5A0B5\.SUM
*890 muldiv\.mul8\.HA_P6A0B6\.SUM
*891 muldiv\.negedgeReg_1\.area_io_q
*892 muldiv\.regR\[0\]
*893 muldiv\.regR\[10\]
*894 muldiv\.regR\[11\]
*895 muldiv\.regR\[12\]
*896 muldiv\.regR\[13\]
*897 muldiv\.regR\[14\]
*898 muldiv\.regR\[15\]
*899 muldiv\.regR\[1\]
*900 muldiv\.regR\[2\]
*901 muldiv\.regR\[3\]
*902 muldiv\.regR\[4\]
*903 muldiv\.regR\[5\]
*904 muldiv\.regR\[6\]
*905 muldiv\.regR\[7\]
*906 muldiv\.regR\[8\]
*907 muldiv\.regR\[9\]
*908 net1
*909 net10
*910 net11
*911 net12
*912 net13
*913 net14
*914 net15
*915 net16
*916 net17
*917 net18
*918 net19
*919 net2
*920 net20
*921 net21
*922 net22
*923 net23
*924 net24
*925 net25
*926 net26
*927 net27
*928 net28
*929 net29
*930 net3
*931 net30
*932 net31
*933 net4
*934 net44
*935 net45
*936 net46
*937 net47
*938 net48
*939 net49
*940 net5
*941 net50
*942 net51
*943 net52
*944 net53
*945 net54
*946 net55
*947 net56
*948 net57
*949 net58
*950 net59
*951 net6
*952 net60
*953 net61
*954 net62
*955 net63
*956 net66
*957 net67
*958 net68
*959 net69
*960 net7
*961 net70
*962 net71
*963 net72
*964 net73
*965 net74
*966 net75
*967 net76
*968 net77
*969 net78
*970 net79
*971 net8
*972 net80
*973 net81
*974 net82
*975 net83
*976 net84
*977 net85
*978 net86
*979 net87
*980 net88
*981 net89
*982 net9
*983 net90
*984 net91
*985 net92
*986 net93
*987 net94
*988 net95
*989 net96
*990 net97
*991 FILLER_0_0_109
*992 FILLER_0_0_113
*993 FILLER_0_0_125
*994 FILLER_0_0_137
*995 FILLER_0_0_141
*996 FILLER_0_0_15
*997 FILLER_0_0_153
*998 FILLER_0_0_165
*999 FILLER_0_0_169
*1000 FILLER_0_0_181
*1001 FILLER_0_0_193
*1002 FILLER_0_0_197
*1003 FILLER_0_0_209
*1004 FILLER_0_0_221
*1005 FILLER_0_0_225
*1006 FILLER_0_0_237
*1007 FILLER_0_0_249
*1008 FILLER_0_0_253
*1009 FILLER_0_0_265
*1010 FILLER_0_0_27
*1011 FILLER_0_0_277
*1012 FILLER_0_0_281
*1013 FILLER_0_0_29
*1014 FILLER_0_0_293
*1015 FILLER_0_0_3
*1016 FILLER_0_0_305
*1017 FILLER_0_0_309
*1018 FILLER_0_0_321
*1019 FILLER_0_0_333
*1020 FILLER_0_0_41
*1021 FILLER_0_0_53
*1022 FILLER_0_0_57
*1023 FILLER_0_0_69
*1024 FILLER_0_0_81
*1025 FILLER_0_0_85
*1026 FILLER_0_0_97
*1027 FILLER_0_10_107
*1028 FILLER_0_10_129
*1029 FILLER_0_10_137
*1030 FILLER_0_10_15
*1031 FILLER_0_10_183
*1032 FILLER_0_10_195
*1033 FILLER_0_10_220
*1034 FILLER_0_10_232
*1035 FILLER_0_10_251
*1036 FILLER_0_10_264
*1037 FILLER_0_10_27
*1038 FILLER_0_10_29
*1039 FILLER_0_10_291
*1040 FILLER_0_10_299
*1041 FILLER_0_10_3
*1042 FILLER_0_10_307
*1043 FILLER_0_10_315
*1044 FILLER_0_10_322
*1045 FILLER_0_10_334
*1046 FILLER_0_10_41
*1047 FILLER_0_10_98
*1048 FILLER_0_11_106
*1049 FILLER_0_11_113
*1050 FILLER_0_11_138
*1051 FILLER_0_11_15
*1052 FILLER_0_11_150
*1053 FILLER_0_11_162
*1054 FILLER_0_11_182
*1055 FILLER_0_11_217
*1056 FILLER_0_11_223
*1057 FILLER_0_11_225
*1058 FILLER_0_11_237
*1059 FILLER_0_11_244
*1060 FILLER_0_11_256
*1061 FILLER_0_11_27
*1062 FILLER_0_11_3
*1063 FILLER_0_11_304
*1064 FILLER_0_11_329
*1065 FILLER_0_11_39
*1066 FILLER_0_11_80
*1067 FILLER_0_11_90
*1068 FILLER_0_11_97
*1069 FILLER_0_12_112
*1070 FILLER_0_12_120
*1071 FILLER_0_12_147
*1072 FILLER_0_12_15
*1073 FILLER_0_12_158
*1074 FILLER_0_12_166
*1075 FILLER_0_12_171
*1076 FILLER_0_12_179
*1077 FILLER_0_12_187
*1078 FILLER_0_12_195
*1079 FILLER_0_12_220
*1080 FILLER_0_12_228
*1081 FILLER_0_12_248
*1082 FILLER_0_12_258
*1083 FILLER_0_12_27
*1084 FILLER_0_12_29
*1085 FILLER_0_12_298
*1086 FILLER_0_12_3
*1087 FILLER_0_12_306
*1088 FILLER_0_12_309
*1089 FILLER_0_12_321
*1090 FILLER_0_12_333
*1091 FILLER_0_12_41
*1092 FILLER_0_12_71
*1093 FILLER_0_13_113
*1094 FILLER_0_13_121
*1095 FILLER_0_13_15
*1096 FILLER_0_13_160
*1097 FILLER_0_13_211
*1098 FILLER_0_13_251
*1099 FILLER_0_13_263
*1100 FILLER_0_13_27
*1101 FILLER_0_13_275
*1102 FILLER_0_13_279
*1103 FILLER_0_13_293
*1104 FILLER_0_13_3
*1105 FILLER_0_13_305
*1106 FILLER_0_13_317
*1107 FILLER_0_13_329
*1108 FILLER_0_13_39
*1109 FILLER_0_13_51
*1110 FILLER_0_13_57
*1111 FILLER_0_13_86
*1112 FILLER_0_14_109
*1113 FILLER_0_14_115
*1114 FILLER_0_14_138
*1115 FILLER_0_14_15
*1116 FILLER_0_14_162
*1117 FILLER_0_14_166
*1118 FILLER_0_14_192
*1119 FILLER_0_14_202
*1120 FILLER_0_14_211
*1121 FILLER_0_14_223
*1122 FILLER_0_14_239
*1123 FILLER_0_14_250
*1124 FILLER_0_14_259
*1125 FILLER_0_14_27
*1126 FILLER_0_14_271
*1127 FILLER_0_14_29
*1128 FILLER_0_14_3
*1129 FILLER_0_14_301
*1130 FILLER_0_14_307
*1131 FILLER_0_14_309
*1132 FILLER_0_14_321
*1133 FILLER_0_14_333
*1134 FILLER_0_14_41
*1135 FILLER_0_14_63
*1136 FILLER_0_14_88
*1137 FILLER_0_14_92
*1138 FILLER_0_15_105
*1139 FILLER_0_15_111
*1140 FILLER_0_15_143
*1141 FILLER_0_15_15
*1142 FILLER_0_15_159
*1143 FILLER_0_15_167
*1144 FILLER_0_15_169
*1145 FILLER_0_15_173
*1146 FILLER_0_15_186
*1147 FILLER_0_15_195
*1148 FILLER_0_15_223
*1149 FILLER_0_15_228
*1150 FILLER_0_15_260
*1151 FILLER_0_15_27
*1152 FILLER_0_15_3
*1153 FILLER_0_15_308
*1154 FILLER_0_15_320
*1155 FILLER_0_15_332
*1156 FILLER_0_15_39
*1157 FILLER_0_15_54
*1158 FILLER_0_16_110
*1159 FILLER_0_16_131
*1160 FILLER_0_16_139
*1161 FILLER_0_16_141
*1162 FILLER_0_16_15
*1163 FILLER_0_16_172
*1164 FILLER_0_16_189
*1165 FILLER_0_16_195
*1166 FILLER_0_16_197
*1167 FILLER_0_16_201
*1168 FILLER_0_16_218
*1169 FILLER_0_16_249
*1170 FILLER_0_16_253
*1171 FILLER_0_16_267
*1172 FILLER_0_16_27
*1173 FILLER_0_16_273
*1174 FILLER_0_16_29
*1175 FILLER_0_16_3
*1176 FILLER_0_16_304
*1177 FILLER_0_16_309
*1178 FILLER_0_16_321
*1179 FILLER_0_16_333
*1180 FILLER_0_16_41
*1181 FILLER_0_16_53
*1182 FILLER_0_16_57
*1183 FILLER_0_16_61
*1184 FILLER_0_16_82
*1185 FILLER_0_17_102
*1186 FILLER_0_17_110
*1187 FILLER_0_17_122
*1188 FILLER_0_17_15
*1189 FILLER_0_17_165
*1190 FILLER_0_17_169
*1191 FILLER_0_17_173
*1192 FILLER_0_17_188
*1193 FILLER_0_17_201
*1194 FILLER_0_17_215
*1195 FILLER_0_17_223
*1196 FILLER_0_17_225
*1197 FILLER_0_17_231
*1198 FILLER_0_17_248
*1199 FILLER_0_17_258