*SPEF "ieee 1481-1999"
*DESIGN "tt_um_jorgenkraghjakobsen_toi2s"
*DATE "21:12:46 Tuesday April 16, 2024"
*VENDOR "The OpenROAD Project"
*PROGRAM "OpenROAD"
*VERSION "0889970d1790a2617e69f253221b8bd7626e51dc"
*DESIGN_FLOW "NAME_SCOPE LOCAL" "PIN_CAP NONE"
*DIVIDER /
*DELIMITER :
*BUS_DELIMITER []
*T_UNIT 1 NS
*C_UNIT 1 PF
*R_UNIT 1 OHM
*L_UNIT 1 HENRY

*NAME_MAP
*3 clk
*4 ena
*5 rst_n
*6 ui_in[0]
*7 ui_in[1]
*8 ui_in[2]
*9 ui_in[3]
*10 ui_in[4]
*11 ui_in[5]
*12 ui_in[6]
*13 ui_in[7]
*14 uio_in[0]
*15 uio_in[1]
*16 uio_in[2]
*17 uio_in[3]
*18 uio_in[4]
*19 uio_in[5]
*20 uio_in[6]
*21 uio_in[7]
*22 net13
*23 uio_oe[1]
*24 net17
*25 uio_oe[3]
*26 net18
*27 net19
*28 net20
*29 net21
*30 net14
*31 uio_out[1]
*32 uio_out[2]
*33 uio_out[3]
*34 uio_out[4]
*35 uio_out[5]
*36 uio_out[6]
*37 uio_out[7]
*38 uo_out[0]
*39 uo_out[1]
*40 uo_out[2]
*41 uo_out[3]
*42 uo_out[4]
*43 net15
*44 net16
*45 uo_out[7]
*46 _0000_
*47 _0001_
*48 _0002_
*49 _0003_
*50 _0004_
*51 _0005_
*52 _0006_
*53 _0007_
*54 _0008_
*55 _0009_
*56 _0010_
*57 _0011_
*58 _0012_
*59 _0013_
*60 _0014_
*61 _0015_
*62 _0016_
*63 _0017_
*64 _0018_
*65 _0019_
*66 _0020_
*67 _0021_
*68 _0022_
*69 _0023_
*70 _0024_
*71 _0025_
*72 _0026_
*73 _0027_
*74 _0028_
*75 _0029_
*76 _0030_
*77 _0031_
*78 _0032_
*79 _0033_
*80 _0034_
*81 _0035_
*82 _0036_
*83 _0037_
*84 _0038_
*85 _0039_
*86 _0040_
*87 _0041_
*88 _0042_
*89 _0043_
*90 _0044_
*91 _0045_
*92 _0046_
*93 _0047_
*94 _0048_
*95 _0049_
*96 _0050_
*97 _0051_
*98 _0052_
*99 _0053_
*100 _0054_
*101 _0055_
*102 _0056_
*103 _0057_
*104 _0058_
*105 _0059_
*106 _0060_
*107 _0061_
*108 _0062_
*109 _0063_
*110 _0064_
*111 _0065_
*112 _0066_
*113 _0067_
*114 _0068_
*115 _0069_
*116 _0070_
*117 _0071_
*118 _0072_
*119 _0073_
*120 _0074_
*121 _0075_
*122 _0076_
*123 _0077_
*124 _0078_
*125 _0079_
*126 _0080_
*127 _0081_
*128 _0082_
*129 _0083_
*130 _0084_
*131 _0085_
*132 _0086_
*133 _0087_
*134 _0088_
*135 _0089_
*136 _0090_
*137 _0091_
*138 _0092_
*139 _0093_
*140 _0094_
*141 _0095_
*142 _0096_
*143 _0097_
*144 _0098_
*145 _0099_
*146 _0100_
*147 _0101_
*148 _0102_
*149 _0103_
*150 _0104_
*151 _0105_
*152 _0106_
*153 _0107_
*154 _0108_
*155 _0109_
*156 _0110_
*157 _0111_
*158 _0112_
*159 _0113_
*160 _0114_
*161 _0115_
*162 _0116_
*163 _0117_
*164 _0118_
*165 _0119_
*166 _0120_
*167 _0121_
*168 _0122_
*169 _0123_
*170 _0124_
*171 _0125_
*172 _0126_
*173 _0127_
*174 _0128_
*175 _0129_
*176 _0130_
*177 _0131_
*178 _0132_
*179 _0133_
*180 _0134_
*181 _0135_
*182 _0136_
*183 _0137_
*184 _0138_
*185 _0139_
*186 _0140_
*187 _0141_
*188 _0142_
*189 _0143_
*190 _0144_
*191 _0145_
*192 _0146_
*193 _0147_
*194 _0148_
*195 _0149_
*196 _0150_
*197 _0151_
*198 _0152_
*199 _0153_
*200 _0154_
*201 _0155_
*202 _0156_
*203 _0157_
*204 _0158_
*205 _0159_
*206 _0160_
*207 _0161_
*208 _0162_
*209 _0163_
*210 _0164_
*211 _0165_
*212 _0166_
*213 _0167_
*214 _0168_
*215 _0169_
*216 _0170_
*217 _0171_
*218 _0172_
*219 _0173_
*220 _0174_
*221 _0175_
*222 _0176_
*223 _0177_
*224 _0178_
*225 _0179_
*226 _0180_
*227 _0181_
*228 _0182_
*229 _0183_
*230 _0184_
*231 _0185_
*232 _0186_
*233 _0187_
*234 _0188_
*235 _0189_
*236 _0190_
*237 _0191_
*238 _0192_
*239 _0193_
*240 _0194_
*241 _0195_
*242 _0196_
*243 _0197_
*244 _0198_
*245 _0199_
*246 _0200_
*247 _0201_
*248 _0202_
*249 _0203_
*250 _0204_
*251 _0205_
*252 _0206_
*253 _0207_
*254 _0208_
*255 _0209_
*256 _0210_
*257 _0211_
*258 _0212_
*259 _0213_
*260 _0214_
*261 _0215_
*262 _0216_
*263 _0217_
*264 _0218_
*265 _0219_
*266 _0220_
*267 _0221_
*268 _0222_
*269 _0223_
*270 _0224_
*271 _0225_
*272 _0226_
*273 _0227_
*274 _0228_
*275 _0229_
*276 _0230_
*277 _0231_
*278 _0232_
*279 _0233_
*280 _0234_
*281 _0235_
*282 _0236_
*283 _0237_
*284 _0238_
*285 _0239_
*286 _0240_
*287 _0241_
*288 _0242_
*289 _0243_
*290 _0244_
*291 _0245_
*292 _0246_
*293 _0247_
*294 _0248_
*295 _0249_
*296 _0250_
*297 _0251_
*298 _0252_
*299 _0253_
*300 _0254_
*301 _0255_
*302 _0256_
*303 _0257_
*304 _0258_
*305 _0259_
*306 _0260_
*307 _0261_
*308 _0262_
*309 _0263_
*310 _0264_
*311 _0265_
*312 _0266_
*313 _0267_
*314 _0268_
*315 _0269_
*316 _0270_
*317 _0271_
*318 _0272_
*319 _0273_
*320 _0274_
*321 _0275_
*322 _0276_
*323 _0277_
*324 _0278_
*325 _0279_
*326 _0280_
*327 _0281_
*328 _0282_
*329 _0283_
*330 _0284_
*331 _0285_
*332 _0286_
*333 _0287_
*334 _0288_
*335 _0289_
*336 _0290_
*337 _0291_
*338 _0292_
*339 _0293_
*340 _0294_
*341 _0295_
*342 _0296_
*343 _0297_
*344 _0298_
*345 _0299_
*346 _0300_
*347 _0301_
*348 _0302_
*349 _0303_
*350 _0304_
*351 _0305_
*352 _0306_
*353 _0307_
*354 _0308_
*355 _0309_
*356 _0310_
*357 _0311_
*358 _0312_
*359 _0313_
*360 _0314_
*361 _0315_
*362 _0316_
*363 _0317_
*364 _0318_
*365 _0319_
*366 _0320_
*367 _0321_
*368 _0322_
*369 _0323_
*370 _0324_
*371 _0325_
*372 _0326_
*373 _0327_
*374 _0328_
*375 _0329_
*376 _0330_
*377 _0331_
*378 _0332_
*379 _0333_
*380 _0334_
*381 _0335_
*382 _0336_
*383 _0337_
*384 _0338_
*385 _0339_
*386 _0340_
*387 _0341_
*388 _0342_
*389 _0343_
*390 _0344_
*391 _0345_
*392 _0346_
*393 _0347_
*394 _0348_
*395 _0349_
*396 _0350_
*397 _0351_
*398 _0352_
*399 _0353_
*400 _0354_
*401 _0355_
*402 _0356_
*403 _0357_
*404 _0358_
*405 _0359_
*406 _0360_
*407 _0361_
*408 _0362_
*409 _0363_
*410 _0364_
*411 _0365_
*412 _0366_
*413 _0367_
*414 _0368_
*415 _0369_
*416 _0370_
*417 _0371_
*418 _0372_
*419 _0373_
*420 _0374_
*421 _0375_
*422 _0376_
*423 _0377_
*424 _0378_
*425 _0379_
*426 _0380_
*427 _0381_
*428 _0382_
*429 _0383_
*430 _0384_
*431 _0385_
*432 _0386_
*433 _0387_
*434 _0388_
*435 _0389_
*436 _0390_
*437 _0391_
*438 _0392_
*439 _0393_
*440 _0394_
*441 _0395_
*442 _0396_
*443 _0397_
*444 _0398_
*445 _0399_
*446 _0400_
*447 _0401_
*448 _0402_
*449 _0403_
*450 _0404_
*451 _0405_
*452 _0406_
*453 _0407_
*454 _0408_
*455 _0409_
*456 _0410_
*457 _0411_
*458 _0412_
*459 _0413_
*460 _0414_
*461 _0415_
*462 _0416_
*463 _0417_
*464 _0418_
*465 _0419_
*466 _0420_
*467 _0421_
*468 _0422_
*469 _0423_
*470 _0424_
*471 _0425_
*472 _0426_
*473 _0427_
*474 _0428_
*475 _0429_
*476 _0430_
*477 _0431_
*478 _0432_
*479 _0433_
*480 _0434_
*481 _0435_
*482 _0436_
*483 _0437_
*484 _0438_
*485 _0439_
*486 _0440_
*487 _0441_
*488 _0442_
*489 _0443_
*490 _0444_
*491 _0445_
*492 _0446_
*493 _0447_
*494 _0448_
*495 _0449_
*496 _0450_
*497 _0451_
*498 _0452_
*499 _0453_
*500 _0454_
*501 _0455_
*502 _0456_
*503 _0457_
*504 _0458_
*505 _0459_
*506 _0460_
*507 _0461_
*508 _0462_
*509 _0463_
*510 _0464_
*511 _0465_
*512 _0466_
*513 _0467_
*514 _0468_
*515 _0469_
*516 _0470_
*517 _0471_
*518 _0472_
*519 _0473_
*520 _0474_
*521 _0475_
*522 _0476_
*523 _0477_
*524 _0478_
*525 _0479_
*526 _0480_
*527 _0481_
*528 _0482_
*529 _0483_
*530 _0484_
*531 _0485_
*532 _0486_
*533 _0487_
*534 _0488_
*535 _0489_
*536 _0490_
*537 _0491_
*538 _0492_
*539 _0493_
*540 _0494_
*541 _0495_
*542 _0496_
*543 _0497_
*544 _0498_
*545 _0499_
*546 _0500_
*547 _0501_
*548 _0502_
*549 _0503_
*550 _0504_
*551 _0505_
*552 _0506_
*553 _0507_
*554 _0508_
*555 _0509_
*556 _0510_
*557 _0511_
*558 _0512_
*559 _0513_
*560 _0514_
*561 _0515_
*562 _0516_
*563 _0517_
*564 _0518_
*565 _0519_
*566 _0520_
*567 _0521_
*568 _0522_
*569 _0523_
*570 _0524_
*571 _0525_
*572 _0526_
*573 _0527_
*574 _0528_
*575 _0529_
*576 _0530_
*577 _0531_
*578 _0532_
*579 _0533_
*580 _0534_
*581 _0535_
*582 _0536_
*583 _0537_
*584 _0538_
*585 _0539_
*586 _0540_
*587 _0541_
*588 _0542_
*589 _0543_
*590 _0544_
*591 _0545_
*592 _0546_
*593 _0547_
*594 _0548_
*595 _0549_
*596 _0550_
*597 _0551_
*598 _0552_
*599 _0553_
*600 _0554_
*601 _0555_
*602 _0556_
*603 _0557_
*604 _0558_
*605 _0559_
*606 _0560_
*607 _0561_
*608 _0562_
*609 _0563_
*610 _0564_
*611 _0565_
*612 _0566_
*613 _0567_
*614 _0568_
*615 _0569_
*616 _0570_
*617 _0571_
*618 _0572_
*619 _0573_
*620 _0574_
*621 _0575_
*622 _0576_
*623 _0577_
*624 _0578_
*625 _0579_
*626 _0580_
*627 _0581_
*628 _0582_
*629 _0583_
*630 _0584_
*631 _0585_
*632 _0586_
*633 _0587_
*634 _0588_
*635 _0589_
*636 _0590_
*637 _0591_
*638 _0592_
*639 _0593_
*640 _0594_
*641 _0595_
*642 _0596_
*643 _0597_
*644 _0598_
*645 _0599_
*646 _0600_
*647 _0601_
*648 _0602_
*649 _0603_
*650 _0604_
*651 _0605_
*652 _0606_
*653 _0607_
*654 _0608_
*655 _0609_
*656 _0610_
*657 _0611_
*658 _0612_
*659 _0613_
*660 _0614_
*661 _0615_
*662 _0616_
*663 _0617_
*664 _0618_
*665 _0619_
*666 _0620_
*667 _0621_
*668 _0622_
*669 _0623_
*670 _0624_
*671 _0625_
*672 _0626_
*673 _0627_
*674 _0628_
*675 _0629_
*676 _0630_
*677 _0631_
*678 _0632_
*679 _0633_
*680 _0634_
*681 _0635_
*682 _0636_
*683 _0637_
*684 _0638_
*685 _0639_
*686 _0640_
*687 _0641_
*688 _0642_
*689 _0643_
*690 _0644_
*691 _0645_
*692 _0646_
*693 _0647_
*694 _0648_
*695 _0649_
*696 _0650_
*697 _0651_
*698 _0652_
*699 _0653_
*700 _0654_
*701 _0655_
*702 _0656_
*703 _0657_
*704 _0658_
*705 _0659_
*706 _0660_
*707 _0661_
*708 _0662_
*709 _0663_
*710 _0664_
*711 _0665_
*712 _0666_
*713 _0667_
*714 _0668_
*715 _0669_
*716 _0670_
*717 _0671_
*718 _0672_
*719 _0673_
*720 _0674_
*721 _0675_
*722 _0676_
*723 _0677_
*724 _0678_
*725 _0679_
*726 _0680_
*727 _0681_
*728 _0682_
*729 _0683_
*730 _0684_
*731 _0685_
*732 _0686_
*733 _0687_
*734 _0688_
*735 _0689_
*736 _0690_
*737 _0691_
*738 _0692_
*739 _0693_
*740 _0694_
*741 _0695_
*742 _0696_
*743 _0697_
*744 _0698_
*745 _0699_
*746 _0700_
*747 _0701_
*748 _0702_
*749 _0703_
*750 _0704_
*751 _0705_
*752 _0706_
*753 _0707_
*754 _0708_
*755 _0709_
*756 _0710_
*757 _0711_
*758 _0712_
*759 _0713_
*760 _0714_
*761 _0715_
*762 _0716_
*763 _0717_
*764 _0718_
*765 _0719_
*766 _0720_
*767 _0721_
*768 _0722_
*769 _0723_
*770 _0724_
*771 _0725_
*772 _0726_
*773 _0727_
*774 _0728_
*775 _0729_
*776 _0730_
*777 _0731_
*778 _0732_
*779 _0733_
*780 _0734_
*781 _0735_
*782 _0736_
*783 _0737_
*784 _0738_
*785 _0739_
*786 _0740_
*787 _0741_
*788 _0742_
*789 _0743_
*790 _0744_
*791 _0745_
*792 _0746_
*793 _0747_
*794 _0748_
*795 _0749_
*796 _0750_
*797 _0751_
*798 _0752_
*799 _0753_
*800 _0754_
*801 _0755_
*802 _0756_
*803 _0757_
*804 _0758_
*805 _0759_
*806 _0760_
*807 _0761_
*808 _0762_
*809 _0763_
*810 _0764_
*811 _0765_
*812 _0766_
*813 _0767_
*814 _0768_
*815 _0769_
*816 _0770_
*817 _0771_
*818 _0772_
*819 _0773_
*820 _0774_
*821 _0775_
*822 _0776_
*823 _0777_
*824 _0778_
*825 _0779_
*826 _0780_
*827 _0781_
*828 _0782_
*829 _0783_
*830 _0784_
*831 _0785_
*832 _0786_
*833 _0787_
*834 _0788_
*835 _0789_
*836 _0790_
*837 _0791_
*838 _0792_
*839 _0793_
*840 _0794_
*841 _0795_
*842 _0796_
*843 _0797_
*844 _0798_
*845 _0799_
*846 _0800_
*847 _0801_
*848 _0802_
*849 _0803_
*850 _0804_
*851 _0805_
*852 _0806_
*853 _0807_
*854 _0808_
*855 _0809_
*856 _0810_
*857 _0811_
*858 _0812_
*859 _0813_
*860 _0814_
*861 _0815_
*862 _0816_
*863 _0817_
*864 _0818_
*865 _0819_
*866 _0820_
*867 _0821_
*868 _0822_
*869 _0823_
*870 _0824_
*871 _0825_
*872 _0826_
*873 _0827_
*874 _0828_
*875 _0829_
*876 _0830_
*877 _0831_
*878 _0832_
*879 _0833_
*880 _0834_
*881 _0835_
*882 _0836_
*883 _0837_
*884 _0838_
*885 _0839_
*886 _0840_
*887 _0841_
*888 _0842_
*889 _0843_
*890 _0844_
*891 _0845_
*892 _0846_
*893 _0847_
*894 _0848_
*895 _0849_
*896 _0850_
*897 _0851_
*898 _0852_
*899 _0853_
*900 _0854_
*901 _0855_
*902 _0856_
*903 _0857_
*904 _0858_
*905 _0859_
*906 _0860_
*907 _0861_
*908 _0862_
*909 _0863_
*910 _0864_
*911 _0865_
*912 _0866_
*913 _0867_
*914 _0868_
*915 _0869_
*916 _0870_
*917 _0871_
*918 _0872_
*919 _0873_
*920 _0874_
*921 _0875_
*922 _0876_
*923 _0877_
*924 _0878_
*925 _0879_
*926 _0880_
*927 _0881_
*928 _0882_
*929 _0883_
*930 _0884_
*931 _0885_
*932 _0886_
*933 _0887_
*934 _0888_
*935 _0889_
*936 _0890_
*937 _0891_
*938 _0892_
*939 _0893_
*940 _0894_
*941 _0895_
*942 _0896_
*943 _0897_
*944 _0898_
*945 _0899_
*946 _0900_
*947 _0901_
*948 _0902_
*949 _0903_
*950 _0904_
*951 _0905_
*952 _0906_
*953 _0907_
*954 _0908_
*955 _0909_
*956 clknet_0_clk
*957 clknet_1_0__leaf_clk
*958 clknet_1_1__leaf_clk
*959 clknet_leaf_0_clk
*960 clknet_leaf_10_clk
*961 clknet_leaf_11_clk
*962 clknet_leaf_12_clk
*963 clknet_leaf_13_clk
*964 clknet_leaf_14_clk
*965 clknet_leaf_15_clk
*966 clknet_leaf_16_clk
*967 clknet_leaf_17_clk
*968 clknet_leaf_18_clk
*969 clknet_leaf_19_clk
*970 clknet_leaf_1_clk
*971 clknet_leaf_20_clk
*972 clknet_leaf_21_clk
*973 clknet_leaf_22_clk
*974 clknet_leaf_23_clk
*975 clknet_leaf_24_clk
*976 clknet_leaf_25_clk
*977 clknet_leaf_26_clk
*978 clknet_leaf_2_clk
*979 clknet_leaf_3_clk
*980 clknet_leaf_4_clk
*981 clknet_leaf_5_clk
*982 clknet_leaf_6_clk
*983 clknet_leaf_7_clk
*984 clknet_leaf_8_clk
*985 clknet_leaf_9_clk
*986 net1
*987 net10
*988 net100
*989 net101
*990 net102
*991 net103
*992 net104
*993 net105
*994 net106
*995 net107
*996 net108
*997 net109
*998 net11
*999 net110
*1000 net111
*1001 net112
*1002 net113
*1003 net114
*1004 net115
*1005 net116
*1006 net117
*1007 net118
*1008 net119
*1009 net12
*1010 net120
*1011 net121
*1012 net122
*1013 net123
*1014 net124
*1015 net125
*1016 net126
*1017 net127
*1018 net128
*1019 net129
*1020 net130
*1021 net131
*1022 net132
*1023 net133
*1024 net134
*1025 net135
*1026 net136
*1027 net137
*1028 net138
*1029 net139
*1030 net140
*1031 net141
*1032 net142
*1033 net143
*1034 net144
*1035 net145
*1036 net146
*1037 net147
*1038 net148
*1039 net149
*1040 net150
*1041 net151
*1042 net152
*1043 net153
*1044 net154
*1045 net155
*1046 net156
*1047 net157
*1048 net158
*1049 net159
*1050 net160
*1051 net161
*1052 net162
*1053 net163
*1054 net164
*1055 net165
*1056 net166
*1057 net167
*1058 net168
*1059 net169
*1060 net170
*1061 net171
*1062 net172
*1063 net173
*1064 net174
*1065 net175
*1066 net176
*1067 net177
*1068 net178
*1069 net179
*1070 net180
*1071 net181
*1072 net182
*1073 net183
*1074 net184
*1075 net185
*1076 net186
*1077 net187
*1078 net188
*1079 net189
*1080 net190
*1081 net191
*1082 net192
*1083 net193
*1084 net194
*1085 net195
*1086 net196
*1087 net197
*1088 net198
*1089 net199
*1090 net2
*1091 net200
*1092 net201
*1093 net202
*1094 net203
*1095 net204
*1096 net205
*1097 net206
*1098 net207
*1099 net208
*1100 net209
*1101 net210
*1102 net211
*1103 net212
*1104 net213
*1105 net214
*1106 net215
*1107 net216
*1108 net217
*1109 net218
*1110 net219
*1111 net22
*1112 net220
*1113 net221
*1114 net222
*1115 net223
*1116 net224
*1117 net225
*1118 net226
*1119 net227
*1120 net228
*1121 net229
*1122 net23
*1123 net230
*1124 net231
*1125 net232
*1126 net233
*1127 net234
*1128 net235
*1129 net236
*1130 net237
*1131 net238
*1132 net239
*1133 net24
*1134 net240
*1135 net241
*1136 net242
*1137 net243
*1138 net244
*1139 net245
*1140 net25
*1141 net26
*1142 net27
*1143 net28
*1144 net29
*1145 net3
*1146 net30
*1147 net31
*1148 net32
*1149 net33
*1150 net34
*1151 net35
*1152 net36
*1153 net37
*1154 net38
*1155 net39
*1156 net4
*1157 net40
*1158 net41
*1159 net42
*1160 net43
*1161 net44
*1162 net45
*1163 net46
*1164 net47
*1165 net48
*1166 net49
*1167 net5
*1168 net50
*1169 net51
*1170 net52
*1171 net53
*1172 net54
*1173 net55
*1174 net56
*1175 net57
*1176 net58
*1177 net59
*1178 net6
*1179 net60
*1180 net61
*1181 net62
*1182 net63
*1183 net64
*1184 net65
*1185 net66
*1186 net67
*1187 net68
*1188 net69
*1189 net7
*1190 net70
*1191 net71
*1192 net72
*1193 net73
*1194 net74
*1195 net75
*1196 net76
*1197 net77
*1198 net78
*1199 net79
*1200 net8
*1201 net80
*1202 net81
*1203 net82
*1204 net83
*1205 net84
*1206 net85
*1207 net86
*1208 net87
*1209 net88
*1210 net89
*1211 net9
*1212 net90
*1213 net91
*1214 net92
*1215 net93
*1216 net94
*1217 net95
*1218 net96
*1219 net97
*1220 net98
*1221 net99
*1222 tt_top_inst\.amp_i2c_scl
*1223 tt_top_inst\.amp_i2c_sdao
*1224 tt_top_inst\.amp_i2s_bck
*1225 tt_top_inst\.amp_i2s_d0
*1226 tt_top_inst\.amp_i2s_ws
*1227 tt_top_inst\.amp_if_inst\.amp_nenable
*1228 tt_top_inst\.amp_if_inst\.amp_nmute
*1229 tt_top_inst\.amp_if_inst\.ctrl\.amp_state_reg\[0\]
*1230 tt_top_inst\.amp_if_inst\.ctrl\.amp_state_reg\[1\]
*1231 tt_top_inst\.amp_if_inst\.ctrl\.amp_state_reg\[2\]
*1232 tt_top_inst\.amp_if_inst\.ctrl\.tim\.counter_reg\[0\]
*1233 tt_top_inst\.amp_if_inst\.ctrl\.tim\.counter_reg\[10\]
*1234 tt_top_inst\.amp_if_inst\.ctrl\.tim\.counter_reg\[11\]
*1235 tt_top_inst\.amp_if_inst\.ctrl\.tim\.counter_reg\[12\]
*1236 tt_top_inst\.amp_if_inst\.ctrl\.tim\.counter_reg\[13\]
*1237 tt_top_inst\.amp_if_inst\.ctrl\.tim\.counter_reg\[14\]
*1238 tt_top_inst\.amp_if_inst\.ctrl\.tim\.counter_reg\[15\]
*1239 tt_top_inst\.amp_if_inst\.ctrl\.tim\.counter_reg\[1\]
*1240 tt_top_inst\.amp_if_inst\.ctrl\.tim\.counter_reg\[2\]
*1241 tt_top_inst\.amp_if_inst\.ctrl\.tim\.counter_reg\[3\]
*1242 tt_top_inst\.amp_if_inst\.ctrl\.tim\.counter_reg\[4\]
*1243 tt_top_inst\.amp_if_inst\.ctrl\.tim\.counter_reg\[5\]
*1244 tt_top_inst\.amp_if_inst\.ctrl\.tim\.counter_reg\[6\]
*1245 tt_top_inst\.amp_if_inst\.ctrl\.tim\.counter_reg\[7\]
*1246 tt_top_inst\.amp_if_inst\.ctrl\.tim\.counter_reg\[8\]
*1247 tt_top_inst\.amp_if_inst\.ctrl\.tim\.counter_reg\[9\]
*1248 tt_top_inst\.amp_if_inst\.ctrl\.tim\.timer_start
*1249 tt_top_inst\.amp_if_inst\.ctrl\.tim\.timer_state_run
*1250 tt_top_inst\.amp_if_inst\.i2c\.boot_index\[0\]
*1251 tt_top_inst\.amp_if_inst\.i2c\.boot_index\[1\]
*1252 tt_top_inst\.amp_if_inst\.i2c\.boot_index\[2\]
*1253 tt_top_inst\.amp_if_inst\.i2c\.clk
*1254 tt_top_inst\.amp_if_inst\.i2c\.div\.cc_reg\[0\]
*1255 tt_top_inst\.amp_if_inst\.i2c\.div\.cc_reg\[1\]
*1256 tt_top_inst\.amp_if_inst\.i2c\.div\.cc_reg\[2\]
*1257 tt_top_inst\.amp_if_inst\.i2c\.div\.cc_reg\[3\]
*1258 tt_top_inst\.amp_if_inst\.i2c\.div\.cc_reg\[4\]
*1259 tt_top_inst\.amp_if_inst\.i2c\.i2c_cnt\[0\]
*1260 tt_top_inst\.amp_if_inst\.i2c\.i2c_cnt\[1\]
*1261 tt_top_inst\.amp_if_inst\.i2c\.i2c_cnt\[2\]
*1262 tt_top_inst\.amp_if_inst\.i2c\.i2c_cnt\[3\]
*1263 tt_top_inst\.amp_if_inst\.i2c\.i2c_cnt\[4\]
*1264 tt_top_inst\.amp_if_inst\.i2c\.i2c_cnt\[5\]
*1265 tt_top_inst\.amp_if_inst\.i2c\.opcode\[0\]
*1266 tt_top_inst\.amp_if_inst\.i2c\.opcode\[1\]
*1267 tt_top_inst\.amp_if_inst\.i2c\.opcode\[3\]
*1268 tt_top_inst\.amp_if_inst\.i2c\.opcode\[4\]
*1269 tt_top_inst\.amp_if_inst\.i2c\.opcode\[6\]
*1270 tt_top_inst\.amp_if_inst\.i2c\.state_reg\[0\]
*1271 tt_top_inst\.amp_if_inst\.i2c\.state_reg\[1\]
*1272 tt_top_inst\.amp_if_inst\.i2c\.state_reg\[2\]
*1273 tt_top_inst\.amp_if_inst\.i2c\.state_reg\[3\]
*1274 tt_top_inst\.amp_if_inst\.i2c\.state_reg\[4\]
*1275 tt_top_inst\.amp_if_inst\.i2c\.state_reg\[5\]
*1276 tt_top_inst\.amp_if_inst\.i2c\.state_reg\[6\]
*1277 tt_top_inst\.amp_if_inst\.i2c\.state_reg\[7\]
*1278 tt_top_inst\.amp_if_inst\.i2c\.state_reg\[8\]
*1279 tt_top_inst\.amp_if_inst\.i2s_bck_tmp
*1280 tt_top_inst\.amp_if_inst\.i2s_d0_tmp
*1281 tt_top_inst\.amp_if_inst\.i2s_ws_tmp
*1282 tt_top_inst\.amp_if_inst\.spdif\.bckcnt\[0\]
*1283 tt_top_inst\.amp_if_inst\.spdif\.bckcnt\[1\]
*1284 tt_top_inst\.amp_if_inst\.spdif\.bckcnt\[2\]
*1285 tt_top_inst\.amp_if_inst\.spdif\.bckcnt\[3\]
*1286 tt_top_inst\.amp_if_inst\.spdif\.bckcnt\[4\]
*1287 tt_top_inst\.amp_if_inst\.spdif\.bckcnt\[5\]
*1288 tt_top_inst\.amp_if_inst\.spdif\.bckcnt\[6\]
*1289 tt_top_inst\.amp_if_inst\.spdif\.bckcnt\[7\]
*1290 tt_top_inst\.amp_if_inst\.spdif\.bitcnt\[0\]
*1291 tt_top_inst\.amp_if_inst\.spdif\.bitcnt\[1\]
*1292 tt_top_inst\.amp_if_inst\.spdif\.bitcnt\[2\]
*1293 tt_top_inst\.amp_if_inst\.spdif\.bitcnt\[3\]
*1294 tt_top_inst\.amp_if_inst\.spdif\.bitcnt\[4\]
*1295 tt_top_inst\.amp_if_inst\.spdif\.bitcnt\[5\]
*1296 tt_top_inst\.amp_if_inst\.spdif\.bitcnt\[6\]
*1297 tt_top_inst\.amp_if_inst\.spdif\.bitcnt\[7\]
*1298 tt_top_inst\.amp_if_inst\.spdif\.bitedge_detected
*1299 tt_top_inst\.amp_if_inst\.spdif\.bitlength\[0\]
*1300 tt_top_inst\.amp_if_inst\.spdif\.bitlength\[1\]
*1301 tt_top_inst\.amp_if_inst\.spdif\.bitlength\[2\]
*1302 tt_top_inst\.amp_if_inst\.spdif\.bitlength\[3\]
*1303 tt_top_inst\.amp_if_inst\.spdif\.bitlength\[4\]
*1304 tt_top_inst\.amp_if_inst\.spdif\.bitlength\[5\]
*1305 tt_top_inst\.amp_if_inst\.spdif\.bitlength\[6\]
*1306 tt_top_inst\.amp_if_inst\.spdif\.bitlength\[7\]
*1307 tt_top_inst\.amp_if_inst\.spdif\.correlator\[0\]
*1308 tt_top_inst\.amp_if_inst\.spdif\.correlator\[1\]
*1309 tt_top_inst\.amp_if_inst\.spdif\.correlator\[2\]
*1310 tt_top_inst\.amp_if_inst\.spdif\.ext_state\[0\]
*1311 tt_top_inst\.amp_if_inst\.spdif\.ext_state\[1\]
*1312 tt_top_inst\.amp_if_inst\.spdif\.ext_state\[2\]
*1313 tt_top_inst\.amp_if_inst\.spdif\.ext_state\[3\]
*1314 tt_top_inst\.amp_if_inst\.spdif\.pcm_index\[0\]
*1315 tt_top_inst\.amp_if_inst\.spdif\.pcm_index\[1\]
*1316 tt_top_inst\.amp_if_inst\.spdif\.pcm_index\[2\]
*1317 tt_top_inst\.amp_if_inst\.spdif\.pcm_index\[3\]
*1318 tt_top_inst\.amp_if_inst\.spdif\.pcm_index\[4\]
*1319 tt_top_inst\.amp_if_inst\.spdif\.pcmbufL\[0\]
*1320 tt_top_inst\.amp_if_inst\.spdif\.pcmbufL\[10\]
*1321 tt_top_inst\.amp_if_inst\.spdif\.pcmbufL\[11\]
*1322 tt_top_inst\.amp_if_inst\.spdif\.pcmbufL\[12\]
*1323 tt_top_inst\.amp_if_inst\.spdif\.pcmbufL\[13\]
*1324 tt_top_inst\.amp_if_inst\.spdif\.pcmbufL\[14\]
*1325 tt_top_inst\.amp_if_inst\.spdif\.pcmbufL\[15\]
*1326 tt_top_inst\.amp_if_inst\.spdif\.pcmbufL\[16\]
*1327 tt_top_inst\.amp_if_inst\.spdif\.pcmbufL\[17\]
*1328 tt_top_inst\.amp_if_inst\.spdif\.pcmbufL\[18\]
*1329 tt_top_inst\.amp_if_inst\.spdif\.pcmbufL\[19\]
*1330 tt_top_inst\.amp_if_inst\.spdif\.pcmbufL\[1\]
*1331 tt_top_inst\.amp_if_inst\.spdif\.pcmbufL\[20\]
*1332 tt_top_inst\.amp_if_inst\.spdif\.pcmbufL\[21\]
*1333 tt_top_inst\.amp_if_inst\.spdif\.pcmbufL\[22\]
*1334 tt_top_inst\.amp_if_inst\.spdif\.pcmbufL\[23\]
*1335 tt_top_inst\.amp_if_inst\.spdif\.pcmbufL\[2\]
*1336 tt_top_inst\.amp_if_inst\.spdif\.pcmbufL\[3\]
*1337 tt_top_inst\.amp_if_inst\.spdif\.pcmbufL\[4\]
*1338 tt_top_inst\.amp_if_inst\.spdif\.pcmbufL\[5\]
*1339 tt_top_inst\.amp_if_inst\.spdif\.pcmbufL\[6\]
*1340 tt_top_inst\.amp_if_inst\.spdif\.pcmbufL\[7\]
*1341 tt_top_inst\.amp_if_inst\.spdif\.pcmbufL\[8\]
*1342 tt_top_inst\.amp_if_inst\.spdif\.pcmbufL\[9\]
*1343 tt_top_inst\.amp_if_inst\.spdif\.pcmbufR\[0\]
*1344 tt_top_inst\.amp_if_inst\.spdif\.pcmbufR\[10\]
*1345 tt_top_inst\.amp_if_inst\.spdif\.pcmbufR\[11\]
*1346 tt_top_inst\.amp_if_inst\.spdif\.pcmbufR\[12\]
*1347 tt_top_inst\.amp_if_inst\.spdif\.pcmbufR\[13\]
*1348 tt_top_inst\.amp_if_inst\.spdif\.pcmbufR\[14\]
*1349 tt_top_inst\.amp_if_inst\.spdif\.pcmbufR\[15\]
*1350 tt_top_inst\.amp_if_inst\.spdif\.pcmbufR\[16\]
*1351 tt_top_inst\.amp_if_inst\.spdif\.pcmbufR\[17\]
*1352 tt_top_inst\.amp_if_inst\.spdif\.pcmbufR\[18\]
*1353 tt_top_inst\.amp_if_inst\.spdif\.pcmbufR\[19\]
*1354 tt_top_inst\.amp_if_inst\.spdif\.pcmbufR\[1\]
*1355 tt_top_inst\.amp_if_inst\.spdif\.pcmbufR\[20\]
*1356 tt_top_inst\.amp_if_inst\.spdif\.pcmbufR\[21\]
*1357 tt_top_inst\.amp_if_inst\.spdif\.pcmbufR\[22\]
*1358 tt_top_inst\.amp_if_inst\.spdif\.pcmbufR\[23\]
*1359 tt_top_inst\.amp_if_inst\.spdif\.pcmbufR\[2\]
*1360 tt_top_inst\.amp_if_inst\.spdif\.pcmbufR\[3\]
*1361 tt_top_inst\.amp_if_inst\.spdif\.pcmbufR\[4\]
*1362 tt_top_inst\.amp_if_inst\.spdif\.pcmbufR\[5\]
*1363 tt_top_inst\.amp_if_inst\.spdif\.pcmbufR\[6\]
*1364 tt_top_inst\.amp_if_inst\.spdif\.pcmbufR\[7\]
*1365 tt_top_inst\.amp_if_inst\.spdif\.pcmbufR\[8\]
*1366 tt_top_inst\.amp_if_inst\.spdif\.pcmbufR\[9\]
*1367 tt_top_inst\.amp_if_inst\.spdif\.phase_reg
*1368 tt_top_inst\.debug_out\[0\]
*1369 tt_top_inst\.debug_out\[1\]
*1370 tt_top_inst\.debug_out\[2\]
*1371 tt_top_inst\.debug_out\[3\]
*1372 tt_top_inst\.debug_out\[4\]
*1373 tt_top_inst\.i2c_inst\.address\[0\]
*1374 tt_top_inst\.i2c_inst\.address\[1\]
*1375 tt_top_inst\.i2c_inst\.address\[2\]
*1376 tt_top_inst\.i2c_inst\.address\[3\]
*1377 tt_top_inst\.i2c_inst\.address\[4\]
*1378 tt_top_inst\.i2c_inst\.address\[5\]
*1379 tt_top_inst\.i2c_inst\.clearStartStopDet
*1380 tt_top_inst\.i2c_inst\.data_read_from_reg\[0\]
*1381 tt_top_inst\.i2c_inst\.data_read_from_reg\[1\]
*1382 tt_top_inst\.i2c_inst\.data_read_from_reg\[2\]
*1383 tt_top_inst\.i2c_inst\.data_read_from_reg\[3\]
*1384 tt_top_inst\.i2c_inst\.data_read_from_reg\[4\]
*1385 tt_top_inst\.i2c_inst\.data_read_from_reg\[5\]
*1386 tt_top_inst\.i2c_inst\.data_read_from_reg\[6\]
*1387 tt_top_inst\.i2c_inst\.data_read_from_reg\[7\]
*1388 tt_top_inst\.i2c_inst\.data_write_to_reg\[0\]
*1389 tt_top_inst\.i2c_inst\.data_write_to_reg\[1\]
*1390 tt_top_inst\.i2c_inst\.data_write_to_reg\[2\]
*1391 tt_top_inst\.i2c_inst\.data_write_to_reg\[3\]
*1392 tt_top_inst\.i2c_inst\.data_write_to_reg\[4\]
*1393 tt_top_inst\.i2c_inst\.data_write_to_reg\[5\]
*1394 tt_top_inst\.i2c_inst\.data_write_to_reg\[6\]
*1395 tt_top_inst\.i2c_inst\.data_write_to_reg\[7\]
*1396 tt_top_inst\.i2c_inst\.rstPipe\[0\]
*1397 tt_top_inst\.i2c_inst\.rstPipe\[1\]
*1398 tt_top_inst\.i2c_inst\.sclDeb
*1399 tt_top_inst\.i2c_inst\.sclDelayed\[0\]
*1400 tt_top_inst\.i2c_inst\.sclDelayed\[1\]
*1401 tt_top_inst\.i2c_inst\.sclDelayed\[2\]
*1402 tt_top_inst\.i2c_inst\.sclDelayed\[3\]
*1403 tt_top_inst\.i2c_inst\.sclDelayed\[4\]
*1404 tt_top_inst\.i2c_inst\.sclPipe\[0\]
*1405 tt_top_inst\.i2c_inst\.sclPipe\[1\]
*1406 tt_top_inst\.i2c_inst\.sclPipe\[2\]
*1407 tt_top_inst\.i2c_inst\.sclPipe\[3\]
*1408 tt_top_inst\.i2c_inst\.sclPipe\[4\]
*1409 tt_top_inst\.i2c_inst\.sdaDeb
*1410 tt_top_inst\.i2c_inst\.sdaDelayed\[0\]
*1411 tt_top_inst\.i2c_inst\.sdaDelayed\[1\]
*1412 tt_top_inst\.i2c_inst\.sdaOut
*1413 tt_top_inst\.i2c_inst\.sdaPipe\[0\]
*1414 tt_top_inst\.i2c_inst\.sdaPipe\[1\]
*1415 tt_top_inst\.i2c_inst\.sdaPipe\[2\]
*1416 tt_top_inst\.i2c_inst\.sdaPipe\[3\]
*1417 tt_top_inst\.i2c_inst\.sdaPipe\[4\]
*1418 tt_top_inst\.i2c_inst\.startEdgeDet
*1419 tt_top_inst\.i2c_inst\.startStopDetState\[0\]
*1420 tt_top_inst\.i2c_inst\.startStopDetState\[1\]
*1421 tt_top_inst\.i2c_inst\.startStopDetState\[2\]
*1422 tt_top_inst\.i2c_inst\.u_serialInterface\.CurrState_SISt\[0\]
*1423 tt_top_inst\.i2c_inst\.u_serialInterface\.CurrState_SISt\[10\]
*1424 tt_top_inst\.i2c_inst\.u_serialInterface\.CurrState_SISt\[11\]
*1425 tt_top_inst\.i2c_inst\.u_serialInterface\.CurrState_SISt\[12\]
*1426 tt_top_inst\.i2c_inst\.u_serialInterface\.CurrState_SISt\[13\]
*1427 tt_top_inst\.i2c_inst\.u_serialInterface\.CurrState_SISt\[14\]
*1428 tt_top_inst\.i2c_inst\.u_serialInterface\.CurrState_SISt\[15\]
*1429 tt_top_inst\.i2c_inst\.u_serialInterface\.CurrState_SISt\[1\]
*1430 tt_top_inst\.i2c_inst\.u_serialInterface\.CurrState_SISt\[2\]
*1431 tt_top_inst\.i2c_inst\.u_serialInterface\.CurrState_SISt\[3\]
*1432 tt_top_inst\.i2c_inst\.u_serialInterface\.CurrState_SISt\[4\]
*1433 tt_top_inst\.i2c_inst\.u_serialInterface\.CurrState_SISt\[5\]
*1434 tt_top_inst\.i2c_inst\.u_serialInterface\.CurrState_SISt\[6\]
*1435 tt_top_inst\.i2c_inst\.u_serialInterface\.CurrState_SISt\[7\]
*1436 tt_top_inst\.i2c_inst\.u_serialInterface\.CurrState_SISt\[8\]
*1437 tt_top_inst\.i2c_inst\.u_serialInterface\.CurrState_SISt\[9\]
*1438 tt_top_inst\.i2c_inst\.u_serialInterface\.bitCnt\[0\]
*1439 tt_top_inst\.i2c_inst\.u_serialInterface\.bitCnt\[1\]
*1440 tt_top_inst\.i2c_inst\.u_serialInterface\.bitCnt\[2\]
*1441 tt_top_inst\.i2c_inst\.u_serialInterface\.rst
*1442 tt_top_inst\.i2c_inst\.u_serialInterface\.rxData\[0\]
*1443 tt_top_inst\.i2c_inst\.u_serialInterface\.rxData\[1\]
*1444 tt_top_inst\.i2c_inst\.u_serialInterface\.rxData\[2\]
*1445 tt_top_inst\.i2c_inst\.u_serialInterface\.rxData\[3\]
*1446 tt_top_inst\.i2c_inst\.u_serialInterface\.rxData\[4\]
*1447 tt_top_inst\.i2c_inst\.u_serialInterface\.rxData\[5\]
*1448 tt_top_inst\.i2c_inst\.u_serialInterface\.rxData\[6\]
*1449 tt_top_inst\.i2c_inst\.u_serialInterface\.rxData\[7\]
*1450 tt_top_inst\.i2c_inst\.u_serialInterface\.streamSt\[0\]
*1451 tt_top_inst\.i2c_inst\.u_serialInterface\.streamSt\[1\]
*1452 tt_top_inst\.i2c_inst\.u_serialInterface\.streamSt\[2\]
*1453 tt_top_inst\.i2c_inst\.u_serialInterface\.streamSt\[3\]
*1454 tt_top_inst\.i2c_inst\.u_serialInterface\.txData\[0\]
*1455 tt_top_inst\.i2c_inst\.u_serialInterface\.txData\[1\]
*1456 tt_top_inst\.i2c_inst\.u_serialInterface\.txData\[2\]
*1457 tt_top_inst\.i2c_inst\.u_serialInterface\.txData\[3\]
*1458 tt_top_inst\.i2c_inst\.u_serialInterface\.txData\[4\]
*1459 tt_top_inst\.i2c_inst\.u_serialInterface\.txData\[5\]
*1460 tt_top_inst\.i2c_inst\.u_serialInterface\.txData\[6\]
*1461 tt_top_inst\.i2c_inst\.u_serialInterface\.txData\[7\]
*1462 tt_top_inst\.i2c_inst\.u_serialInterface\.writeEn
*1463 tt_top_inst\.pwm_inst\.counter\[0\]
*1464 tt_top_inst\.pwm_inst\.counter\[1\]
*1465 tt_top_inst\.pwm_inst\.counter\[2\]
*1466 tt_top_inst\.pwm_inst\.counter\[3\]
*1467 tt_top_inst\.pwm_inst\.counter\[4\]
*1468 tt_top_inst\.pwm_inst\.counter\[5\]
*1469 tt_top_inst\.pwm_inst\.counter\[6\]
*1470 tt_top_inst\.pwm_inst\.counter\[7\]
*1471 tt_top_inst\.pwm_inst\.duty_cycle\[0\]
*1472 tt_top_inst\.pwm_inst\.duty_cycle\[1\]
*1473 tt_top_inst\.pwm_inst\.duty_cycle\[2\]
*1474 tt_top_inst\.pwm_inst\.duty_cycle\[3\]
*1475 tt_top_inst\.pwm_inst\.duty_cycle\[4\]
*1476 tt_top_inst\.pwm_inst\.duty_cycle\[5\]
*1477 tt_top_inst\.pwm_inst\.duty_cycle\[6\]
*1478 tt_top_inst\.pwm_inst\.duty_cycle\[7\]
*1479 tt_top_inst\.pwm_inst\.pwm
*1480 tt_top_inst\.pwm_inst\.pwm_out
*1481 tt_top_inst\.rb_toi2s_inst\.reg__sys_cfg__debug_led\[5\]
*1482 tt_top_inst\.rb_toi2s_inst\.reg__sys_cfg__enable_other
*1483 tt_top_inst\.rb_toi2s_inst\.reg__sys_cfg__enable_stuf
*1484 ANTENNA_1
*1485 ANTENNA_2
*1486 ANTENNA_3
*1487 ANTENNA_4
*1488 FILLER_0_0_109
*1489 FILLER_0_0_113
*1490 FILLER_0_0_125
*1491 FILLER_0_0_137
*1492 FILLER_0_0_141
*1493 FILLER_0_0_15
*1494 FILLER_0_0_153
*1495 FILLER_0_0_165
*1496 FILLER_0_0_169
*1497 FILLER_0_0_181
*1498 FILLER_0_0_193
*1499 FILLER_0_0_197
*1500 FILLER_0_0_209
*1501 FILLER_0_0_221
*1502 FILLER_0_0_225
*1503 FILLER_0_0_237
*1504 FILLER_0_0_249
*1505 FILLER_0_0_253
*1506 FILLER_0_0_265
*1507 FILLER_0_0_27
*1508 FILLER_0_0_277
*1509 FILLER_0_0_281
*1510 FILLER_0_0_29
*1511 FILLER_0_0_293
*1512 FILLER_0_0_3
*1513 FILLER_0_0_305
*1514 FILLER_0_0_309
*1515 FILLER_0_0_321
*1516 FILLER_0_0_333
*1517 FILLER_0_0_41
*1518 FILLER_0_0_53
*1519 FILLER_0_0_57
*1520 FILLER_0_0_69
*1521 FILLER_0_0_81
*1522 FILLER_0_0_85
*1523 FILLER_0_0_97
*1524 FILLER_0_10_109
*1525 FILLER_0_10_121
*1526 FILLER_0_10_133
*1527 FILLER_0_10_139
*1528 FILLER_0_10_141
*1529 FILLER_0_10_15