*SPEF "ieee 1481-1999"
*DESIGN "tt_um_7seg_animated"
*DATE "17:43:09 Thursday April 18, 2024"
*VENDOR "The OpenROAD Project"
*PROGRAM "OpenROAD"
*VERSION "0889970d1790a2617e69f253221b8bd7626e51dc"
*DESIGN_FLOW "NAME_SCOPE LOCAL" "PIN_CAP NONE"
*DIVIDER /
*DELIMITER :
*BUS_DELIMITER []
*T_UNIT 1 NS
*C_UNIT 1 PF
*R_UNIT 1 OHM
*L_UNIT 1 HENRY

*NAME_MAP
*3 clk
*4 ena
*5 rst_n
*6 ui_in[0]
*7 ui_in[1]
*8 ui_in[2]
*9 ui_in[3]
*10 ui_in[4]
*11 ui_in[5]
*12 ui_in[6]
*13 ui_in[7]
*14 uio_in[0]
*15 uio_in[1]
*16 uio_in[2]
*17 uio_in[3]
*18 uio_in[4]
*19 uio_in[5]
*20 uio_in[6]
*21 uio_in[7]
*22 net12
*23 net13
*24 net14
*25 net15
*26 net16
*27 net17
*28 net18
*29 net19
*30 net20
*31 net21
*32 net22
*33 net23
*34 net24
*35 net25
*36 net26
*37 net27
*38 net28
*39 uo_out[1]
*40 uo_out[2]
*41 uo_out[3]
*42 uo_out[4]
*43 uo_out[5]
*44 uo_out[6]
*45 uo_out[7]
*46 _000_
*47 _001_
*48 _002_
*49 _003_
*50 _004_
*51 _005_
*52 _006_
*53 _007_
*54 _008_
*55 _009_
*56 _010_
*57 _011_
*58 _012_
*59 _013_
*60 _014_
*61 _015_
*62 _016_
*63 _017_
*64 _018_
*65 _019_
*66 _020_
*67 _021_
*68 _022_
*69 _023_
*70 _024_
*71 _025_
*72 _026_
*73 _027_
*74 _028_
*75 _029_
*76 _030_
*77 _031_
*78 _032_
*79 _033_
*80 _034_
*81 _035_
*82 _036_
*83 _037_
*84 _038_
*85 _039_
*86 _040_
*87 _041_
*88 _042_
*89 _043_
*90 _044_
*91 _045_
*92 _046_
*93 _047_
*94 _048_
*95 _049_
*96 _050_
*97 _051_
*98 _052_
*99 _053_
*100 _054_
*101 _055_
*102 _056_
*103 _057_
*104 _058_
*105 _059_
*106 _060_
*107 _061_
*108 _062_
*109 _063_
*110 _064_
*111 _065_
*112 _066_
*113 _067_
*114 _068_
*115 _069_
*116 _070_
*117 _071_
*118 _072_
*119 _073_
*120 _074_
*121 _075_
*122 _076_
*123 _077_
*124 _078_
*125 _079_
*126 _080_
*127 _081_
*128 _082_
*129 _083_
*130 _084_
*131 _085_
*132 _086_
*133 _087_
*134 _088_
*135 _089_
*136 _090_
*137 _091_
*138 _092_
*139 _093_
*140 _094_
*141 _095_
*142 _096_
*143 _097_
*144 _098_
*145 _099_
*146 _100_
*147 _101_
*148 _102_
*149 _103_
*150 _104_
*151 _105_
*152 _106_
*153 _107_
*154 _108_
*155 _109_
*156 _110_
*157 _111_
*158 _112_
*159 _113_
*160 _114_
*161 _115_
*162 _116_
*163 _117_
*164 _118_
*165 _119_
*166 _120_
*167 _121_
*168 _122_
*169 _123_
*170 _124_
*171 _125_
*172 _126_
*173 _127_
*174 _128_
*175 _129_
*176 _130_
*177 _131_
*178 _132_
*179 _133_
*180 _134_
*181 _135_
*182 _136_
*183 _137_
*184 _138_
*185 _139_
*186 _140_
*187 _141_
*188 _142_
*189 _143_
*190 _144_
*191 _145_
*192 _146_
*193 _147_
*194 _148_
*195 _149_
*196 _150_
*197 _151_
*198 _152_
*199 _153_
*200 _154_
*201 _155_
*202 _156_
*203 _157_
*204 _158_
*205 _159_
*206 _160_
*207 _161_
*208 _162_
*209 _163_
*210 _164_
*211 _165_
*212 _166_
*213 _167_
*214 _168_
*215 _169_
*216 _170_
*217 _171_
*218 _172_
*219 _173_
*220 _174_
*221 _175_
*222 _176_
*223 _177_
*224 _178_
*225 _179_
*226 _180_
*227 _181_
*228 _182_
*229 _183_
*230 _184_
*231 _185_
*232 _186_
*233 _187_
*234 _188_
*235 _189_
*236 _190_
*237 _191_
*238 _192_
*239 _193_
*240 _194_
*241 _195_
*242 _196_
*243 _197_
*244 _198_
*245 _199_
*246 _200_
*247 _201_
*248 _202_
*249 _203_
*250 _204_
*251 _205_
*252 _206_
*253 _207_
*254 _208_
*255 _209_
*256 _210_
*257 _211_
*258 _212_
*259 _213_
*260 _214_
*261 _215_
*262 _216_
*263 _217_
*264 _218_
*265 _219_
*266 _220_
*267 _221_
*268 _222_
*269 _223_
*270 _224_
*271 _225_
*272 _226_
*273 _227_
*274 _228_
*275 _229_
*276 _230_
*277 _231_
*278 _232_
*279 _233_
*280 _234_
*281 _235_
*282 _236_
*283 _237_
*284 _238_
*285 _239_
*286 _240_
*287 _241_
*288 _242_
*289 _243_
*290 _244_
*291 _245_
*292 _246_
*293 _247_
*294 _248_
*295 _249_
*296 animator\.charAvailable_prev
*297 animator\.charInput\[0\]
*298 animator\.charInput\[1\]
*299 animator\.charInput\[2\]
*300 animator\.charInput\[3\]
*301 animator\.charInput\[4\]
*302 animator\.charInput\[5\]
*303 animator\.charInput\[6\]
*304 animator\.clk60
*305 animator\.clk60_prev
*306 animator\.currentChar\[0\]
*307 animator\.currentChar\[1\]
*308 animator\.currentChar\[2\]
*309 animator\.currentChar\[3\]
*310 animator\.currentChar\[4\]
*311 animator\.currentChar\[5\]
*312 animator\.currentChar\[6\]
*313 animator\.reset
*314 animator\.segChecked\[0\]
*315 animator\.segChecked\[1\]
*316 animator\.segChecked\[2\]
*317 animator\.segChecked\[3\]
*318 animator\.segChecked\[4\]
*319 animator\.segChecked\[5\]
*320 animator\.segChecked\[6\]
*321 animator\.segIndex\[0\]
*322 animator\.segIndex\[1\]
*323 animator\.segIndex\[2\]
*324 animator\.state\[1\]
*325 animator\.state\[2\]
*326 animator\.timerCount\[0\]
*327 animator\.timerCount\[1\]
*328 animator\.timerCount\[2\]
*329 animator\.timerCount\[3\]
*330 animator\.timerCount\[4\]
*331 animator\.timerCount\[5\]
*332 clk_divider\.clkPwm
*333 clk_divider\.count2\[0\]
*334 clk_divider\.count2\[1\]
*335 clk_divider\.count2\[2\]
*336 clk_divider\.count2\[3\]
*337 clk_divider\.count2\[4\]
*338 clk_divider\.count2\[5\]
*339 clk_divider\.count2\[6\]
*340 clk_divider\.count2\[7\]
*341 clk_divider\.count2\[8\]
*342 clk_divider\.count2\[9\]
*343 clk_divider\.count\[0\]
*344 clk_divider\.count\[1\]
*345 clk_divider\.count\[2\]
*346 clk_divider\.count\[3\]
*347 clk_divider\.count\[4\]
*348 clk_divider\.count\[5\]
*349 clknet_0_clk
*350 clknet_2_0__leaf_clk
*351 clknet_2_1__leaf_clk
*352 clknet_2_2__leaf_clk
*353 clknet_2_3__leaf_clk
*354 net1
*355 net10
*356 net11
*357 net2
*358 net29
*359 net3
*360 net30
*361 net31
*362 net32
*363 net33
*364 net34
*365 net35
*366 net36
*367 net37
*368 net38
*369 net39
*370 net4
*371 net40
*372 net41
*373 net42
*374 net43
*375 net44
*376 net45
*377 net46
*378 net47
*379 net48
*380 net49
*381 net5
*382 net50
*383 net51
*384 net52
*385 net53
*386 net54
*387 net55
*388 net56
*389 net57
*390 net58
*391 net59
*392 net6
*393 net60
*394 net61
*395 net62
*396 net7
*397 net8
*398 net9
*399 FILLER_0_0_109
*400 FILLER_0_0_113
*401 FILLER_0_0_125
*402 FILLER_0_0_137
*403 FILLER_0_0_141
*404 FILLER_0_0_15
*405 FILLER_0_0_153
*406 FILLER_0_0_165
*407 FILLER_0_0_169
*408 FILLER_0_0_181
*409 FILLER_0_0_193
*410 FILLER_0_0_197
*411 FILLER_0_0_209
*412 FILLER_0_0_221
*413 FILLER_0_0_225
*414 FILLER_0_0_237
*415 FILLER_0_0_249
*416 FILLER_0_0_253
*417 FILLER_0_0_265
*418 FILLER_0_0_27
*419 FILLER_0_0_277
*420 FILLER_0_0_281
*421 FILLER_0_0_29
*422 FILLER_0_0_293
*423 FILLER_0_0_3
*424 FILLER_0_0_305
*425 FILLER_0_0_309
*426 FILLER_0_0_321
*427 FILLER_0_0_333
*428 FILLER_0_0_41
*429 FILLER_0_0_53
*430 FILLER_0_0_57
*431 FILLER_0_0_69
*432 FILLER_0_0_81
*433 FILLER_0_0_85
*434 FILLER_0_0_97
*435 FILLER_0_10_109
*436 FILLER_0_10_121
*437 FILLER_0_10_133
*438 FILLER_0_10_139
*439 FILLER_0_10_141
*440 FILLER_0_10_15
*441 FILLER_0_10_153
*442 FILLER_0_10_165
*443 FILLER_0_10_177
*444 FILLER_0_10_189
*445 FILLER_0_10_195
*446 FILLER_0_10_197
*447 FILLER_0_10_209
*448 FILLER_0_10_221
*449 FILLER_0_10_233
*450 FILLER_0_10_245
*451 FILLER_0_10_251
*452 FILLER_0_10_253
*453 FILLER_0_10_265
*454 FILLER_0_10_27
*455 FILLER_0_10_277
*456 FILLER_0_10_289
*457 FILLER_0_10_29
*458 FILLER_0_10_3
*459 FILLER_0_10_301
*460 FILLER_0_10_307
*461 FILLER_0_10_309
*462 FILLER_0_10_321
*463 FILLER_0_10_333
*464 FILLER_0_10_41
*465 FILLER_0_10_53
*466 FILLER_0_10_65
*467 FILLER_0_10_77
*468 FILLER_0_10_83
*469 FILLER_0_10_85
*470 FILLER_0_10_97
*471 FILLER_0_11_105
*472 FILLER_0_11_111
*473 FILLER_0_11_113
*474 FILLER_0_11_125
*475 FILLER_0_11_137
*476 FILLER_0_11_149
*477 FILLER_0_11_15
*478 FILLER_0_11_161
*479 FILLER_0_11_167
*480 FILLER_0_11_169
*481 FILLER_0_11_181
*482 FILLER_0_11_193
*483 FILLER_0_11_205
*484 FILLER_0_11_217
*485 FILLER_0_11_223
*486 FILLER_0_11_225
*487 FILLER_0_11_237
*488 FILLER_0_11_249
*489 FILLER_0_11_261
*490 FILLER_0_11_27
*491 FILLER_0_11_273
*492 FILLER_0_11_279
*493 FILLER_0_11_281
*494 FILLER_0_11_293
*495 FILLER_0_11_3
*496 FILLER_0_11_305
*497 FILLER_0_11_317
*498 FILLER_0_11_329
*499 FILLER_0_11_39
*500 FILLER_0_11_51
*501 FILLER_0_11_55
*502 FILLER_0_11_57
*503 FILLER_0_11_69
*504 FILLER_0_11_81
*505 FILLER_0_11_93
*506 FILLER_0_12_109
*507 FILLER_0_12_121
*508 FILLER_0_12_133
*509 FILLER_0_12_139
*510 FILLER_0_12_141
*511 FILLER_0_12_15
*512 FILLER_0_12_153
*513 FILLER_0_12_165
*514 FILLER_0_12_177
*515 FILLER_0_12_189
*516 FILLER_0_12_195
*517 FILLER_0_12_197
*518 FILLER_0_12_209
*519 FILLER_0_12_221
*520 FILLER_0_12_233
*521 FILLER_0_12_245
*522 FILLER_0_12_251
*523 FILLER_0_12_253
*524 FILLER_0_12_265
*525 FILLER_0_12_27
*526 FILLER_0_12_277
*527 FILLER_0_12_289
*528 FILLER_0_12_29
*529 FILLER_0_12_3
*530 FILLER_0_12_301
*531 FILLER_0_12_307
*532 FILLER_0_12_309
*533 FILLER_0_12_321
*534 FILLER_0_12_333
*535 FILLER_0_12_41
*536 FILLER_0_12_53
*537 FILLER_0_12_65
*538 FILLER_0_12_77
*539 FILLER_0_12_83
*540 FILLER_0_12_85
*541 FILLER_0_12_97
*542 FILLER_0_13_105
*543 FILLER_0_13_111
*544 FILLER_0_13_113
*545 FILLER_0_13_125
*546 FILLER_0_13_137
*547 FILLER_0_13_149
*548 FILLER_0_13_15
*549 FILLER_0_13_161
*550 FILLER_0_13_167
*551 FILLER_0_13_169
*552 FILLER_0_13_181
*553 FILLER_0_13_193
*554 FILLER_0_13_205
*555 FILLER_0_13_217
*556 FILLER_0_13_223
*557 FILLER_0_13_225
*558 FILLER_0_13_237
*559 FILLER_0_13_249
*560 FILLER_0_13_261
*561 FILLER_0_13_27
*562 FILLER_0_13_273
*563 FILLER_0_13_279
*564 FILLER_0_13_281
*565 FILLER_0_13_293
*566 FILLER_0_13_3
*567 FILLER_0_13_305
*568 FILLER_0_13_317
*569 FILLER_0_13_329
*570 FILLER_0_13_39
*571 FILLER_0_13_51
*572 FILLER_0_13_55
*573 FILLER_0_13_57
*574 FILLER_0_13_69
*575 FILLER_0_13_81
*576 FILLER_0_13_93
*577 FILLER_0_14_109
*578 FILLER_0_14_121
*579 FILLER_0_14_133
*580 FILLER_0_14_139
*581 FILLER_0_14_141
*582 FILLER_0_14_15
*583 FILLER_0_14_153
*584 FILLER_0_14_165
*585 FILLER_0_14_177
*586 FILLER_0_14_189
*587 FILLER_0_14_195
*588 FILLER_0_14_197
*589 FILLER_0_14_209
*590 FILLER_0_14_221
*591 FILLER_0_14_233
*592 FILLER_0_14_245
*593 FILLER_0_14_251
*594 FILLER_0_14_253
*595 FILLER_0_14_259
*596 FILLER_0_14_266
*597 FILLER_0_14_27
*598 FILLER_0_14_278
*599 FILLER_0_14_29
*600 FILLER_0_14_290
*601 FILLER_0_14_3
*602 FILLER_0_14_302
*603 FILLER_0_14_309
*604 FILLER_0_14_321
*605 FILLER_0_14_333
*606 FILLER_0_14_41
*607 FILLER_0_14_53
*608 FILLER_0_14_65
*609 FILLER_0_14_77
*610 FILLER_0_14_83
*611 FILLER_0_14_85
*612 FILLER_0_14_97
*613 FILLER_0_15_105
*614 FILLER_0_15_111
*615 FILLER_0_15_113
*616 FILLER_0_15_125
*617 FILLER_0_15_137
*618 FILLER_0_15_149
*619 FILLER_0_15_15
*620 FILLER_0_15_161
*621 FILLER_0_15_167
*622 FILLER_0_15_169
*623 FILLER_0_15_181
*624 FILLER_0_15_193
*625 FILLER_0_15_205
*626 FILLER_0_15_217
*627 FILLER_0_15_223
*628 FILLER_0_15_228
*629 FILLER_0_15_240
*630 FILLER_0_15_248
*631 FILLER_0_15_27
*632 FILLER_0_15_277
*633 FILLER_0_15_281
*634 FILLER_0_15_293
*635 FILLER_0_15_3
*636 FILLER_0_15_305
*637 FILLER_0_15_317
*638 FILLER_0_15_329
*639 FILLER_0_15_39
*640 FILLER_0_15_51
*641 FILLER_0_15_55
*642 FILLER_0_15_57
*643 FILLER_0_15_69
*644 FILLER_0_15_81
*645 FILLER_0_15_93
*646 FILLER_0_16_109
*647 FILLER_0_16_121
*648 FILLER_0_16_133
*649 FILLER_0_16_139
*650 FILLER_0_16_141
*651 FILLER_0_16_15
*652 FILLER_0_16_153
*653 FILLER_0_16_165
*654 FILLER_0_16_177
*655 FILLER_0_16_189
*656 FILLER_0_16_195
*657 FILLER_0_16_197
*658 FILLER_0_16_209
*659 FILLER_0_16_217
*660 FILLER_0_16_241
*661 FILLER_0_16_253
*662 FILLER_0_16_27
*663 FILLER_0_16_282
*664 FILLER_0_16_29
*665 FILLER_0_16_294
*666 FILLER_0_16_3
*667 FILLER_0_16_306
*668 FILLER_0_16_309
*669 FILLER_0_16_321
*670 FILLER_0_16_333
*671 FILLER_0_16_41
*672 FILLER_0_16_53
*673 FILLER_0_16_65
*674 FILLER_0_16_77
*675 FILLER_0_16_83
*676 FILLER_0_16_85
*677 FILLER_0_16_97
*678 FILLER_0_17_105
*679 FILLER_0_17_111
*680 FILLER_0_17_113
*681 FILLER_0_17_125
*682 FILLER_0_17_137
*683 FILLER_0_17_149
*684 FILLER_0_17_15
*685 FILLER_0_17_161
*686 FILLER_0_17_167
*687 FILLER_0_17_169
*688 FILLER_0_17_181
*689 FILLER_0_17_193
*690 FILLER_0_17_230
*691 FILLER_0_17_235
*692 FILLER_0_17_247
*693 FILLER_0_17_27
*694 FILLER_0_17_277
*695 FILLER_0_17_281
*696 FILLER_0_17_293
*697 FILLER_0_17_3
*698 FILLER_0_17_305
*699 FILLER_0_17_317
*700 FILLER_0_17_329
*701 FILLER_0_17_39
*702 FILLER_0_17_51
*703 FILLER_0_17_55
*704 FILLER_0_17_57
*705 FILLER_0_17_69
*706 FILLER_0_17_81
*707 FILLER_0_17_93
*708 FILLER_0_18_109
*709 FILLER_0_18_121
*710 FILLER_0_18_133
*711 FILLER_0_18_139
*712 FILLER_0_18_141
*713 FILLER_0_18_15
*714 FILLER_0_18_153
*715 FILLER_0_18_165
*716 FILLER_0_18_177
*717 FILLER_0_18_189
*718 FILLER_0_18_195
*719 FILLER_0_18_224
*720 FILLER_0_18_245
*721 FILLER_0_18_251
*722 FILLER_0_18_253
*723 FILLER_0_18_259
*724 FILLER_0_18_27
*725 FILLER_0_18_276
*726 FILLER_0_18_288
*727 FILLER_0_18_29
*728 FILLER_0_18_3
*729 FILLER_0_18_300
*730 FILLER_0_18_309
*731 FILLER_0_18_321
*732 FILLER_0_18_333
*733 FILLER_0_18_41
*734 FILLER_0_18_53
*735 FILLER_0_18_65
*736 FILLER_0_18_77
*737 FILLER_0_18_83
*738 FILLER_0_18_85
*739 FILLER_0_18_97
*740 FILLER_0_19_105
*741 FILLER_0_19_111
*742 FILLER_0_19_113
*743 FILLER_0_19_125
*744 FILLER_0_19_137
*745 FILLER_0_19_149
*746 FILLER_0_19_15
*747 FILLER_0_19_161
*748 FILLER_0_19_167
*749 FILLER_0_19_169
*750 FILLER_0_19_181
*751 FILLER_0_19_193
*752 FILLER_0_19_202
*753 FILLER_0_19_210
*754 FILLER_0_19_220
*755 FILLER_0_19_225
*756 FILLER_0_19_245
*757 FILLER_0_19_253
*758 FILLER_0_19_27
*759 FILLER_0_19_284
*760 FILLER_0_19_296
*761 FILLER_0_19_3
*762 FILLER_0_19_308
*763 FILLER_0_19_320
*764 FILLER_0_19_332
*765 FILLER_0_19_39
*766 FILLER_0_19_51
*767 FILLER_0_19_55
*768 FILLER_0_19_57
*769 FILLER_0_19_69
*770 FILLER_0_19_81
*771 FILLER_0_19_93
*772 FILLER_0_1_105
*773 FILLER_0_1_111
*774 FILLER_0_1_113
*775 FILLER_0_1_125
*776 FILLER_0_1_137
*777 FILLER_0_1_149
*778 FILLER_0_1_15
*779 FILLER_0_1_161
*780 FILLER_0_1_167
*781 FILLER_0_1_169
*782 FILLER_0_1_181
*783 FILLER_0_1_193
*784 FILLER_0_1_205
*785 FILLER_0_1_217
*786 FILLER_0_1_223
*787 FILLER_0_1_225
*788 FILLER_0_1_237
*789 FILLER_0_1_249
*790 FILLER_0_1_261
*791 FILLER_0_1_27
*792 FILLER_0_1_273
*793 FILLER_0_1_279
*794 FILLER_0_1_281
*795 FILLER_0_1_293
*796 FILLER_0_1_3
*797 FILLER_0_1_305
*798 FILLER_0_1_317
*799 FILLER_0_1_329
*800 FILLER_0_1_39
*801 FILLER_0_1_51
*802 FILLER_0_1_55
*803 FILLER_0_1_57
*804 FILLER_0_1_69
*805 FILLER_0_1_81
*806 FILLER_0_1_93
*807 FILLER_0_20_109
*808 FILLER_0_20_121
*809 FILLER_0_20_133
*810 FILLER_0_20_139
*811 FILLER_0_20_141
*812 FILLER_0_20_15
*813 FILLER_0_20_153
*814 FILLER_0_20_165
*815 FILLER_0_20_177
*816 FILLER_0_20_189
*817 FILLER_0_20_195
*818 FILLER_0_20_197
*819 FILLER_0_20_205
*820 FILLER_0_20_217
*821 FILLER_0_20_229
*822 FILLER_0_20_241
*823 FILLER_0_20_249
*824 FILLER_0_20_27
*825 FILLER_0_20_277
*826 FILLER_0_20_289
*827 FILLER_0_20_29
*828 FILLER_0_20_3
*829 FILLER_0_20_301
*830 FILLER_0_20_307
*831 FILLER_0_20_309
*832 FILLER_0_20_321
*833 FILLER_0_20_333
*834 FILLER_0_20_41
*835 FILLER_0_20_53
*836 FILLER_0_20_65
*837 FILLER_0_20_77
*838 FILLER_0_20_83
*839 FILLER_0_20_85
*840 FILLER_0_20_97
*841 FILLER_0_21_105
*842 FILLER_0_21_111
*843 FILLER_0_21_113
*844 FILLER_0_21_125
*845 FILLER_0_21_137
*846 FILLER_0_21_15
*847 FILLER_0_21_152
*848 FILLER_0_21_164
*849 FILLER_0_21_169
*850 FILLER_0_21_179
*851 FILLER_0_21_191
*852 FILLER_0_21_199
*853 FILLER_0_21_228
*854 FILLER_0_21_240
*855 FILLER_0_21_246
*856 FILLER_0_21_27
*857 FILLER_0_21_279
*858 FILLER_0_21_284
*859 FILLER_0_21_296
*860 FILLER_0_21_3
*861 FILLER_0_21_308
*862 FILLER_0_21_320
*863 FILLER_0_21_332
*864 FILLER_0_21_39
*865 FILLER_0_21_51
*866 FILLER_0_21_55
*867 FILLER_0_21_57
*868 FILLER_0_21_69
*869 FILLER_0_21_81
*870 FILLER_0_21_93
*871 FILLER_0_22_101
*872 FILLER_0_22_122
*873 FILLER_0_22_134
*874 FILLER_0_22_15
*875 FILLER_0_22_161
*876 FILLER_0_22_169
*877 FILLER_0_22_190
*878 FILLER_0_22_204
*879 FILLER_0_22_235
*880 FILLER_0_22_243
*881 FILLER_0_22_27
*882 FILLER_0_22_278
*883 FILLER_0_22_29
*884 FILLER_0_22_290
*885 FILLER_0_22_3
*886 FILLER_0_22_302
*887 FILLER_0_22_309
*888 FILLER_0_22_321
*889 FILLER_0_22_333
*890 FILLER_0_22_41
*891 FILLER_0_22_53
*892 FILLER_0_22_65
*893 FILLER_0_22_77
*894 FILLER_0_22_83
*895 FILLER_0_22_85
*896 FILLER_0_22_97
*897 FILLER_0_23_105
*898 FILLER_0_23_111
*899 FILLER_0_23_128
*900 FILLER_0_23_15
*901 FILLER_0_23_161
*902 FILLER_0_23_169
*903 FILLER_0_23_228
*904 FILLER_0_23_240
*905 FILLER_0_23_267
*906 FILLER_0_23_27
*907 FILLER_0_23_279
*908 FILLER_0_23_281
*909 FILLER_0_23_293
*910 FILLER_0_23_3
*911 FILLER_0_23_305
*912 FILLER_0_23_317
*913 FILLER_0_23_329
*914 FILLER_0_23_39
*915 FILLER_0_23_51
*916 FILLER_0_23_55
*917 FILLER_0_23_57
*918 FILLER_0_23_69
*919 FILLER_0_23_81
*920 FILLER_0_23_93
*921 FILLER_0_24_128
*922 FILLER_0_24_15
*923 FILLER_0_24_162
*924 FILLER_0_24_193
*925 FILLER_0_24_197
*926 FILLER_0_24_205
*927 FILLER_0_24_212
*928 FILLER_0_24_224
*929 FILLER_0_24_236
*930 FILLER_0_24_248
*931 FILLER_0_24_253
*932 FILLER_0_24_263
*933 FILLER_0_24_27
*934 FILLER_0_24_275
*935 FILLER_0_24_287
*936 FILLER_0_24_29
*937 FILLER_0_24_299
*938 FILLER_0_24_3
*939 FILLER_0_24_307
*940 FILLER_0_24_309
*941 FILLER_0_24_321
*942 FILLER_0_24_333
*943 FILLER_0_24_41
*944 FILLER_0_24_53
*945 FILLER_0_24_65
*946 FILLER_0_24_77
*947 FILLER_0_24_83
*948 FILLER_0_24_85
*949 FILLER_0_24_97
*950 FILLER_0_25_105
*951 FILLER_0_25_111
*952 FILLER_0_25_130
*953 FILLER_0_25_149
*954 FILLER_0_25_15
*955 FILLER_0_25_155
*956 FILLER_0_25_167
*957 FILLER_0_25_189
*958 FILLER_0_25_201
*959 FILLER_0_25_209
*960 FILLER_0_25_222
*961 FILLER_0_25_225
*962 FILLER_0_25_237
*963 FILLER_0_25_245
*964 FILLER_0_25_27
*965 FILLER_0_25_270
*966 FILLER_0_25_278
*967 FILLER_0_25_3
*968 FILLER_0_25_305
*969 FILLER_0_25_313
*970 FILLER_0_25_322
*971 FILLER_0_25_334
*972 FILLER_0_25_39
*973 FILLER_0_25_51
*974 FILLER_0_25_55
*975 FILLER_0_25_57
*976 FILLER_0_25_69
*977 FILLER_0_25_81
*978 FILLER_0_25_93
*979 FILLER_0_26_109
*980 FILLER_0_26_121
*981 FILLER_0_26_133
*982 FILLER_0_26_139
*983 FILLER_0_26_141
*984 FILLER_0_26_15
*985 FILLER_0_26_153
*986 FILLER_0_26_157
*987 FILLER_0_26_169
*988 FILLER_0_26_181
*989 FILLER_0_26_193
*990 FILLER_0_26_197
*991 FILLER_0_26_204
*992 FILLER_0_26_225
*993 FILLER_0_26_250
*994 FILLER_0_26_253
*995 FILLER_0_26_260
*996 FILLER_0_26_265
*997 FILLER_0_26_27
*998 FILLER_0_26_277
*999 FILLER_0_26_289
*1000 FILLER_0_26_29
*1001 FILLER_0_26_3
*1002 FILLER_0_26_330
*1003 FILLER_0_26_334
*1004 FILLER_0_26_41
*1005 FILLER_0_26_53
*1006 FILLER_0_26_65
*1007 FILLER_0_26_77
*1008 FILLER_0_26_83
*1009 FILLER_0_26_85
*1010 FILLER_0_26_97
*1011 FILLER_0_27_105
*1012 FILLER_0_27_111
*1013 FILLER_0_27_113
*1014 FILLER_0_27_142
*1015 FILLER_0_27_15
*1016 FILLER_0_27_164
*1017 FILLER_0_27_169
*1018 FILLER_0_27_193
*1019 FILLER_0_27_203
*1020 FILLER_0_27_250
*1021 FILLER_0_27_27
*1022 FILLER_0_27_273
*1023 FILLER_0_27_288
*1024 FILLER_0_27_3
*1025 FILLER_0_27_307
*1026 FILLER_0_27_330
*1027 FILLER_0_27_334
*1028 FILLER_0_27_39
*1029 FILLER_0_27_51
*1030 FILLER_0_27_55
*1031 FILLER_0_27_57
*1032 FILLER_0_27_69
*1033 FILLER_0_27_81
*1034 FILLER_0_27_93
*1035 FILLER_0_28_109
*1036 FILLER_0_28_117
*1037 FILLER_0_28_141
*1038 FILLER_0_28_149
*1039 FILLER_0_28_15
*1040 FILLER_0_28_187
*1041 FILLER_0_28_195
*1042 FILLER_0_28_223
*1043 FILLER_0_28_231
*1044 FILLER_0_28_239
*1045 FILLER_0_28_246
*1046 FILLER_0_28_253
*1047 FILLER_0_28_259
*1048 FILLER_0_28_267
*1049 FILLER_0_28_27
*1050 FILLER_0_28_287
*1051 FILLER_0_28_29
*1052 FILLER_0_28_3
*1053 FILLER_0_28_307
*1054 FILLER_0_28_315
*1055 FILLER_0_28_332
*1056 FILLER_0_28_41
*1057 FILLER_0_28_53
*1058 FILLER_0_28_65
*1059 FILLER_0_28_77
*1060 FILLER_0_28_83
*1061 FILLER_0_28_85
*1062 FILLER_0_28_97
*1063 FILLER_0_29_105
*1064 FILLER_0_29_111
*1065 FILLER_0_29_113
*1066 FILLER_0_29_15
*1067 FILLER_0_29_156
*1068 FILLER_0_29_162
*1069 FILLER_0_29_166
*1070 FILLER_0_29_179
*1071 FILLER_0_29_189
*1072 FILLER_0_29_195
*1073 FILLER_0_29_199
*1074 FILLER_0_29_206
*1075 FILLER_0_29_218
*1076 FILLER_0_29_225
*1077 FILLER_0_29_235
*1078 FILLER_0_29_251
*1079 FILLER_0_29_269
*1080 FILLER_0_29_27
*1081 FILLER_0_29_277
*1082 FILLER_0_29_281
*1083 FILLER_0_29_3
*1084 FILLER_0_29_300
*1085 FILLER_0_29_324
*1086 FILLER_0_29_332
*1087 FILLER_0_29_39
*1088 FILLER_0_29_51
*1089 FILLER_0_29_55
*1090 FILLER_0_29_57
*1091 FILLER_0_29_69
*1092 FILLER_0_29_81
*1093 FILLER_0_29_93
*1094 FILLER_0_2_109
*1095 FILLER_0_2_121
*1096 FILLER_0_2_133
*1097 FILLER_0_2_139
*1098 FILLER_0_2_141
*1099 FILLER_0_2_15
*1100 FILLER_0_2_153
*1101 FILLER_0_2_165
*1102 FILLER_0_2_177
*1103 FILLER_0_2_189
*1104 FILLER_0_2_195
*1105 FILLER_0_2_197
*1106 FILLER_0_2_209
*1107 FILLER_0_2_221
*1108 FILLER_0_2_233
*1109 FILLER_0_2_245
*1110 FILLER_0_2_251
*1111 FILLER_0_2_253
*1112 FILLER_0_2_265
*1113 FILLER_0_2_27
*1114 FILLER_0_2_277
*1115 FILLER_0_2_289
*1116 FILLER_0_2_29
*1117 FILLER_0_2_3
*1118 FILLER_0_2_301
*1119 FILLER_0_2_307
*1120 FILLER_0_2_309
*1121 FILLER_0_2_321
*1122 FILLER_0_2_333
*1123 FILLER_0_2_41
*1124 FILLER_0_2_53
*1125 FILLER_0_2_65
*1126 FILLER_0_2_77
*1127 FILLER_0_2_83
*1128 FILLER_0_2_85
*1129 FILLER_0_2_97
*1130 FILLER_0_30_109
*1131 FILLER_0_30_133
*1132 FILLER_0_30_139
*1133 FILLER_0_30_145
*1134 FILLER_0_30_15
*1135 FILLER_0_30_157
*1136 FILLER_0_30_169
*1137 FILLER_0_30_187
*1138 FILLER_0_30_197
*1139 FILLER_0_30_205
*1140 FILLER_0_30_237
*1141 FILLER_0_30_265
*1142 FILLER_0_30_27
*1143 FILLER_0_30_289
*1144 FILLER_0_30_29
*1145 FILLER_0_30_3
*1146 FILLER_0_30_304
*1147 FILLER_0_30_309
*1148 FILLER_0_30_325
*1149 FILLER_0_30_41
*1150 FILLER_0_30_53
*1151 FILLER_0_30_65
*1152 FILLER_0_30_77
*1153 FILLER_0_30_83
*1154 FILLER_0_30_85
*1155 FILLER_0_30_97
*1156 FILLER_0_31_105
*1157 FILLER_0_31_111
*1158 FILLER_0_31_113
*1159 FILLER_0_31_140
*1160 FILLER_0_31_15
*1161 FILLER_0_31_159
*1162 FILLER_0_31_200
*1163 FILLER_0_31_216
*1164 FILLER_0_31_268
*1165 FILLER_0_31_27
*1166 FILLER_0_31_3
*1167 FILLER_0_31_307
*1168 FILLER_0_31_319
*1169 FILLER_0_31_325
*1170 FILLER_0_31_39
*1171 FILLER_0_31_51
*1172 FILLER_0_31_55
*1173 FILLER_0_31_57
*1174 FILLER_0_31_69
*1175 FILLER_0_31_81
*1176 FILLER_0_31_93
*1177 FILLER_0_32_105
*1178 FILLER_0_32_127
*1179 FILLER_0_32_15
*1180 FILLER_0_32_165
*1181 FILLER_0_32_192
*1182 FILLER_0_32_197
*1183 FILLER_0_32_206
*1184 FILLER_0_32_210
*1185 FILLER_0_32_225
*1186 FILLER_0_32_239
*1187 FILLER_0_32_27
*1188 FILLER_0_32_282
*1189 FILLER_0_32_29
*1190 FILLER_0_32_294
*1191 FILLER_0_32_3
*1192 FILLER_0_32_306
*1193 FILLER_0_32_309
*1194 FILLER_0_32_333
*1195 FILLER_0_32_41
*1196 FILLER_0_32_53
*1197 FILLER_0_32_65
*1198 FILLER_0_32_77
*1199 FILLER_0_32_83
*1200 FILLER_0_32_85
*1201 FILLER_0_32_97
*1202 FILLER_0_33_105
*1203 FILLER_0_33_111
*1204 FILLER_0_33_113
*1205 FILLER_0_33_121
*1206 FILLER_0_33_127
*1207 FILLER_0_33_143
*1208 FILLER_0_33_15
*1209 FILLER_0_33_155
*1210 FILLER_0_33_167
*1211 FILLER_0_33_169
*1212 FILLER_0_33_173
*1213 FILLER_0_33_187
*1214 FILLER_0_33_199
*1215 FILLER_0_33_205
*1216 FILLER_0_33_225
*1217 FILLER_0_33_237
*1218 FILLER_0_33_249
*1219 FILLER_0_33_27
*1220 FILLER_0_33_270
*1221 FILLER_0_33_278
*1222 FILLER_0_33_281
*1223 FILLER_0_33_285
*1224 FILLER_0_33_3
*1225 FILLER_0_33_310
*1226 FILLER_0_33_331
*1227 FILLER_0_33_39
*1228 FILLER_0_33_51
*1229 FILLER_0_33_55
*1230 FILLER_0_33_57
*1231 FILLER_0_33_69
*1232 FILLER_0_33_81
*1233 FILLER_0_33_93
*1234 FILLER_0_34_109
*1235 FILLER_0_34_115
*1236 FILLER_0_34_141
*1237 FILLER_0_34_15
*1238 FILLER_0_34_153
*1239 FILLER_0_34_160
*1240 FILLER_0_34_172
*1241 FILLER_0_34_176
*1242 FILLER_0_34_182
*1243 FILLER_0_34_194
*1244 FILLER_0_34_197
*1245 FILLER_0_34_209
*1246 FILLER_0_34_216
*1247 FILLER_0_34_221
*1248 FILLER_0_34_226
*1249 FILLER_0_34_238
*1250 FILLER_0_34_250
*1251 FILLER_0_34_265
*1252 FILLER_0_34_27
*1253 FILLER_0_34_277
*1254 FILLER_0_34_29
*1255 FILLER_0_34_3
*1256 FILLER_0_34_306
*1257 FILLER_0_34_318
*1258 FILLER_0_34_41
*1259 FILLER_0_34_53
*1260 FILLER_0_34_65
*1261 FILLER_0_34_77
*1262 FILLER_0_34_83
*1263 FILLER_0_34_85
*1264 FILLER_0_34_97
*1265 FILLER_0_35_105
*1266 FILLER_0_35_111
*1267 FILLER_0_35_144
*1268 FILLER_0_35_15
*1269 FILLER_0_35_152
*1270 FILLER_0_35_172
*1271 FILLER_0_35_189
*1272 FILLER_0_35_201
*1273 FILLER_0_35_209
*1274 FILLER_0_35_218
*1275 FILLER_0_35_222
*1276 FILLER_0_35_234
*1277 FILLER_0_35_238
*1278 FILLER_0_35_27
*1279 FILLER_0_35_275
*1280 FILLER_0_35_3
*1281 FILLER_0_35_334
*1282 FILLER_0_35_39
*1283 FILLER_0_35_51
*1284 FILLER_0_35_55
*1285 FILLER_0_35_57
*1286 FILLER_0_35_69
*1287 FILLER_0_35_81
*1288 FILLER_0_35_93
*1289 FILLER_0_36_139
*1290 FILLER_0_36_141
*1291 FILLER_0_36_15
*1292 FILLER_0_36_181
*1293 FILLER_0_36_193
*1294 FILLER_0_36_200
*1295 FILLER_0_36_206
*1296 FILLER_0_36_250
*1297 FILLER_0_36_269
*1298 FILLER_0_36_27
*1299 FILLER_0_36_29
*1300 FILLER_0_36_3
*1301 FILLER_0_36_309
*1302 FILLER_0_36_331
*1303 FILLER_0_36_41
*1304 FILLER_0_36_53
*1305 FILLER_0_36_65
*1306 FILLER_0_36_77
*1307 FILLER_0_36_83
*1308 FILLER_0_36_85
*1309 FILLER_0_36_97
*1310 FILLER_0_37_105
*1311 FILLER_0_37_111
*1312 FILLER_0_37_113
*1313 FILLER_0_37_140
*1314 FILLER_0_37_15
*1315 FILLER_0_37_166
*1316 FILLER_0_37_172
*1317 FILLER_0_37_222
*1318 FILLER_0_37_242
*1319 FILLER_0_37_246
*1320 FILLER_0_37_266
*1321 FILLER_0_37_27
*1322 FILLER_0_37_274
*1323 FILLER_0_37_3
*1324 FILLER_0_37_39
*1325 FILLER_0_37_51
*1326 FILLER_0_37_55
*1327 FILLER_0_37_57
*1328 FILLER_0_37_69
*1329 FILLER_0_37_81
*1330 FILLER_0_37_93
*1331 FILLER_0_38_10
*1332 FILLER_0_38_102
*1333 FILLER_0_38_106
*1334 FILLER_0_38_110
*1335 FILLER_0_38_113
*1336 FILLER_0_38_121
*1337 FILLER_0_38_134
*1338 FILLER_0_38_14
*1339 FILLER_0_38_141
*1340 FILLER_0_38_147
*1341 FILLER_0_38_151
*1342 FILLER_0_38_163
*1343 FILLER_0_38_167
*1344 FILLER_0_38_169
*1345 FILLER_0_38_177
*1346 FILLER_0_38_18
*1347 FILLER_0_38_183
*1348 FILLER_0_38_190
*1349 FILLER_0_38_197
*1350 FILLER_0_38_209
*1351 FILLER_0_38_22
*1352 FILLER_0_38_221
*1353 FILLER_0_38_233
*1354 FILLER_0_38_247
*1355 FILLER_0_38_251
*1356 FILLER_0_38_284
*1357 FILLER_0_38_307
*1358 FILLER_0_38_32
*1359 FILLER_0_38_38
*1360 FILLER_0_38_42
*1361 FILLER_0_38_46
*1362 FILLER_0_38_50
*1363 FILLER_0_38_54
*1364 FILLER_0_38_57
*1365 FILLER_0_38_6
*1366 FILLER_0_38_62
*1367 FILLER_0_38_66
*1368 FILLER_0_38_70
*1369 FILLER_0_38_74
*1370 FILLER_0_38_78
*1371 FILLER_0_38_88
*1372 FILLER_0_38_94
*1373 FILLER_0_38_98
*1374 FILLER_0_3_105
*1375 FILLER_0_3_111
*1376 FILLER_0_3_113
*1377 FILLER_0_3_125
*1378 FILLER_0_3_137
*1379 FILLER_0_3_149
*1380 FILLER_0_3_15
*1381 FILLER_0_3_161
*1382 FILLER_0_3_167
*1383 FILLER_0_3_169
*1384 FILLER_0_3_181
*1385 FILLER_0_3_193
*1386 FILLER_0_3_205
*1387 FILLER_0_3_217
*1388 FILLER_0_3_223
*1389 FILLER_0_3_225
*1390 FILLER_0_3_237
*1391 FILLER_0_3_249
*1392 FILLER_0_3_261
*1393 FILLER_0_3_27
*1394 FILLER_0_3_273
*1395 FILLER_0_3_279
*1396 FILLER_0_3_281
*1397 FILLER_0_3_293
*1398 FILLER_0_3_3
*1399 FILLER_0_3_305
*1400 FILLER_0_3_317
*1401 FILLER_0_3_329
*1402 FILLER_0_3_39
*1403 FILLER_0_3_51
*1404 FILLER_0_3_55
*1405 FILLER_0_3_57
*1406 FILLER_0_3_69
*1407 FILLER_0_3_81
*1408 FILLER_0_3_93
*1409 FILLER_0_4_109
*1410 FILLER_0_4_121
*1411 FILLER_0_4_133
*1412 FILLER_0_4_139
*1413 FILLER_0_4_141
*1414 FILLER_0_4_15
*1415 FILLER_0_4_153
*1416 FILLER_0_4_165
*1417 FILLER_0_4_177
*1418 FILLER_0_4_189
*1419 FILLER_0_4_195
*1420 FILLER_0_4_197
*1421 FILLER_0_4_209
*1422 FILLER_0_4_221
*1423 FILLER_0_4_233
*1424 FILLER_0_4_245
*1425 FILLER_0_4_251
*1426 FILLER_0_4_253
*1427 FILLER_0_4_265
*1428 FILLER_0_4_27
*1429 FILLER_0_4_277
*1430 FILLER_0_4_289
*1431 FILLER_0_4_29
*1432 FILLER_0_4_3
*1433 FILLER_0_4_301
*1434 FILLER_0_4_307
*1435 FILLER_0_4_309
*1436 FILLER_0_4_321
*1437 FILLER_0_4_333
*1438 FILLER_0_4_41
*1439 FILLER_0_4_53
*1440 FILLER_0_4_65
*1441 FILLER_0_4_77
*1442 FILLER_0_4_83
*1443 FILLER_0_4_85
*1444 FILLER_0_4_97
*1445 FILLER_0_5_105
*1446 FILLER_0_5_111
*1447 FILLER_0_5_113
*1448 FILLER_0_5_125
*1449 FILLER_0_5_137
*1450 FILLER_0_5_149
*1451 FILLER_0_5_15
*1452 FILLER_0_5_161
*1453 FILLER_0_5_167
*1454 FILLER_0_5_169
*1455 FILLER_0_5_181
*1456 FILLER_0_5_193
*1457 FILLER_0_5_205
*1458 FILLER_0_5_217
*1459 FILLER_0_5_223
*1460 FILLER_0_5_225
*1461 FILLER_0_5_237
*1462 FILLER_0_5_249
*1463 FILLER_0_5_261
*1464 FILLER_0_5_27
*1465 FILLER_0_5_273
*1466 FILLER_0_5_279
*1467 FILLER_0_5_281
*1468 FILLER_0_5_293
*1469 FILLER_0_5_3
*1470 FILLER_0_5_305
*1471 FILLER_0_5_317
*1472 FILLER_0_5_329
*1473 FILLER_0_5_39
*1474 FILLER_0_5_51
*1475 FILLER_0_5_55
*1476 FILLER_0_5_57
*1477 FILLER_0_5_69
*1478 FILLER_0_5_81
*1479 FILLER_0_5_93
*1480 FILLER_0_6_109
*1481 FILLER_0_6_121
*1482 FILLER_0_6_133
*1483 FILLER_0_6_139
*1484 FILLER_0_6_141
*1485 FILLER_0_6_15
*1486 FILLER_0_6_153
*1487 FILLER_0_6_165
*1488 FILLER_0_6_177
*1489 FILLER_0_6_189
*1490 FILLER_0_6_195
*1491 FILLER_0_6_197
*1492 FILLER_0_6_209
*1493 FILLER_0_6_221
*1494 FILLER_0_6_233
*1495 FILLER_0_6_245
*1496 FILLER_0_6_251
*1497 FILLER_0_6_253
*1498 FILLER_0_6_265
*1499 FILLER_0_6_27
*1500 FILLER_0_6_277
*1501 FILLER_0_6_289
*1502 FILLER_0_6_29
*1503 FILLER_0_6_3
*1504 FILLER_0_6_301
*1505 FILLER_0_6_307
*1506 FILLER_0_6_309
*1507 FILLER_0_6_321
*1508 FILLER_0_6_333
*1509 FILLER_0_6_41
*1510 FILLER_0_6_53
*1511 FILLER_0_6_65
*1512 FILLER_0_6_77
*1513 FILLER_0_6_83
*1514 FILLER_0_6_85
*1515 FILLER_0_6_97
*1516 FILLER_0_7_105
*1517 FILLER_0_7_111
*1518 FILLER_0_7_113
*1519 FILLER_0_7_125
*1520 FILLER_0_7_137
*1521 FILLER_0_7_149
*1522 FILLER_0_7_15
*1523 FILLER_0_7_161
*1524 FILLER_0_7_167
*1525 FILLER_0_7_169
*1526 FILLER_0_7_181
*1527 FILLER_0_7_193
*1528 FILLER_0_7_205
*1529 FILLER_0_7_217
*1530 FILLER_0_7_223
*1531 FILLER_0_7_225
*1532 FILLER_0_7_237
*1533 FILLER_0_7_249
*1534 FILLER_0_7_261
*1535 FILLER_0_7_27
*1536 FILLER_0_7_273
*1537 FILLER_0_7_279
*1538 FILLER_0_7_281
*1539 FILLER_0_7_293
*1540 FILLER_0_7_3
*1541 FILLER_0_7_305
*1542 FILLER_0_7_317
*1543 FILLER_0_7_329
*1544 FILLER_0_7_39
*1545 FILLER_0_7_51
*1546 FILLER_0_7_55
*1547 FILLER_0_7_57
*1548 FILLER_0_7_69
*1549 FILLER_0_7_81
*1550 FILLER_0_7_93
*1551 FILLER_0_8_109
*1552 FILLER_0_8_121
*1553 FILLER_0_8_133
*1554 FILLER_0_8_139
*1555 FILLER_0_8_141
*1556 FILLER_0_8_15
*1557 FILLER_0_8_153
*1558 FILLER_0_8_165
*1559 FILLER_0_8_177
*1560 FILLER_0_8_189
*1561 FILLER_0_8_195