*SPEF "ieee 1481-1999"
*DESIGN "tt_um_7seg_animated"
*DATE "03:07:54 Friday April 19, 2024"
*VENDOR "The OpenROAD Project"
*PROGRAM "OpenROAD"
*VERSION "0889970d1790a2617e69f253221b8bd7626e51dc"
*DESIGN_FLOW "NAME_SCOPE LOCAL" "PIN_CAP NONE"
*DIVIDER /
*DELIMITER :
*BUS_DELIMITER []
*T_UNIT 1 NS
*C_UNIT 1 PF
*R_UNIT 1 OHM
*L_UNIT 1 HENRY

*NAME_MAP
*3 clk
*4 ena
*5 rst_n
*6 ui_in[0]
*7 ui_in[1]
*8 ui_in[2]
*9 ui_in[3]
*10 ui_in[4]
*11 ui_in[5]
*12 ui_in[6]
*13 ui_in[7]
*14 uio_in[0]
*15 uio_in[1]
*16 uio_in[2]
*17 uio_in[3]
*18 uio_in[4]
*19 uio_in[5]
*20 uio_in[6]
*21 uio_in[7]
*22 net12
*23 net13
*24 net14
*25 net15
*26 net16
*27 net17
*28 net18
*29 net19
*30 net20
*31 net21
*32 net22
*33 net23
*34 net24
*35 net25
*36 net26
*37 net27
*38 uo_out[0]
*39 uo_out[1]
*40 uo_out[2]
*41 uo_out[3]
*42 uo_out[4]
*43 uo_out[5]
*44 uo_out[6]
*45 uo_out[7]
*46 _000_
*47 _001_
*48 _002_
*49 _003_
*50 _004_
*51 _005_
*52 _006_
*53 _007_
*54 _008_
*55 _009_
*56 _010_
*57 _011_
*58 _012_
*59 _013_
*60 _014_
*61 _015_
*62 _016_
*63 _017_
*64 _018_
*65 _019_
*66 _020_
*67 _021_
*68 _022_
*69 _023_
*70 _024_
*71 _025_
*72 _026_
*73 _027_
*74 _028_
*75 _029_
*76 _030_
*77 _031_
*78 _032_
*79 _033_
*80 _034_
*81 _035_
*82 _036_
*83 _037_
*84 _038_
*85 _039_
*86 _040_
*87 _041_
*88 _042_
*89 _043_
*90 _044_
*91 _045_
*92 _046_
*93 _047_
*94 _048_
*95 _049_
*96 _050_
*97 _051_
*98 _052_
*99 _053_
*100 _054_
*101 _055_
*102 _056_
*103 _057_
*104 _058_
*105 _059_
*106 _060_
*107 _061_
*108 _062_
*109 _063_
*110 _064_
*111 _065_
*112 _066_
*113 _067_
*114 _068_
*115 _069_
*116 _070_
*117 _071_
*118 _072_
*119 _073_
*120 _074_
*121 _075_
*122 _076_
*123 _077_
*124 _078_
*125 _079_
*126 _080_
*127 _081_
*128 _082_
*129 _083_
*130 _084_
*131 _085_
*132 _086_
*133 _087_
*134 _088_
*135 _089_
*136 _090_
*137 _091_
*138 _092_
*139 _093_
*140 _094_
*141 _095_
*142 _096_
*143 _097_
*144 _098_
*145 _099_
*146 _100_
*147 _101_
*148 _102_
*149 _103_
*150 _104_
*151 _105_
*152 _106_
*153 _107_
*154 _108_
*155 _109_
*156 _110_
*157 _111_
*158 _112_
*159 _113_
*160 _114_
*161 _115_
*162 _116_
*163 _117_
*164 _118_
*165 _119_
*166 _120_
*167 _121_
*168 _122_
*169 _123_
*170 _124_
*171 _125_
*172 _126_
*173 _127_
*174 _128_
*175 _129_
*176 _130_
*177 _131_
*178 _132_
*179 _133_
*180 _134_
*181 _135_
*182 _136_
*183 _137_
*184 _138_
*185 _139_
*186 _140_
*187 _141_
*188 _142_
*189 _143_
*190 _144_
*191 _145_
*192 _146_
*193 _147_
*194 _148_
*195 _149_
*196 _150_
*197 _151_
*198 _152_
*199 _153_
*200 _154_
*201 _155_
*202 _156_
*203 _157_
*204 _158_
*205 _159_
*206 _160_
*207 _161_
*208 _162_
*209 _163_
*210 _164_
*211 _165_
*212 _166_
*213 _167_
*214 _168_
*215 _169_
*216 _170_
*217 _171_
*218 _172_
*219 _173_
*220 _174_
*221 _175_
*222 _176_
*223 _177_
*224 _178_
*225 _179_
*226 _180_
*227 _181_
*228 _182_
*229 _183_
*230 _184_
*231 _185_
*232 _186_
*233 _187_
*234 _188_
*235 _189_
*236 _190_
*237 _191_
*238 _192_
*239 _193_
*240 _194_
*241 _195_
*242 _196_
*243 _197_
*244 _198_
*245 _199_
*246 _200_
*247 _201_
*248 _202_
*249 _203_
*250 _204_
*251 _205_
*252 _206_
*253 _207_
*254 _208_
*255 _209_
*256 _210_
*257 _211_
*258 _212_
*259 _213_
*260 _214_
*261 _215_
*262 _216_
*263 _217_
*264 _218_
*265 _219_
*266 _220_
*267 _221_
*268 _222_
*269 _223_
*270 _224_
*271 _225_
*272 _226_
*273 _227_
*274 _228_
*275 _229_
*276 _230_
*277 _231_
*278 _232_
*279 _233_
*280 _234_
*281 animator\.charAvailable_prev
*282 animator\.charInput\[0\]
*283 animator\.charInput\[1\]
*284 animator\.charInput\[2\]
*285 animator\.charInput\[3\]
*286 animator\.charInput\[4\]
*287 animator\.charInput\[5\]
*288 animator\.charInput\[6\]
*289 animator\.clk60
*290 animator\.clk60_prev
*291 animator\.currentChar\[0\]
*292 animator\.currentChar\[1\]
*293 animator\.currentChar\[2\]
*294 animator\.currentChar\[3\]
*295 animator\.currentChar\[4\]
*296 animator\.currentChar\[5\]
*297 animator\.currentChar\[6\]
*298 animator\.reset
*299 animator\.segChecked\[0\]
*300 animator\.segChecked\[1\]
*301 animator\.segChecked\[2\]
*302 animator\.segChecked\[3\]
*303 animator\.segChecked\[4\]
*304 animator\.segChecked\[5\]
*305 animator\.segChecked\[6\]
*306 animator\.segIndex\[0\]
*307 animator\.segIndex\[1\]
*308 animator\.segIndex\[2\]
*309 animator\.state\[1\]
*310 animator\.state\[2\]
*311 animator\.timerCount\[0\]
*312 animator\.timerCount\[1\]
*313 animator\.timerCount\[2\]
*314 animator\.timerCount\[3\]
*315 animator\.timerCount\[4\]
*316 animator\.timerCount\[5\]
*317 clk_divider\.clkPwm
*318 clk_divider\.count2\[0\]
*319 clk_divider\.count2\[1\]
*320 clk_divider\.count2\[2\]
*321 clk_divider\.count2\[3\]
*322 clk_divider\.count2\[4\]
*323 clk_divider\.count2\[5\]
*324 clk_divider\.count2\[6\]
*325 clk_divider\.count2\[7\]
*326 clk_divider\.count2\[8\]
*327 clk_divider\.count2\[9\]
*328 clk_divider\.count\[0\]
*329 clk_divider\.count\[1\]
*330 clk_divider\.count\[2\]
*331 clk_divider\.count\[3\]
*332 clk_divider\.count\[4\]
*333 clk_divider\.count\[5\]
*334 clknet_0_clk
*335 clknet_2_0__leaf_clk
*336 clknet_2_1__leaf_clk
*337 clknet_2_2__leaf_clk
*338 clknet_2_3__leaf_clk
*339 net1
*340 net10
*341 net11
*342 net2
*343 net28
*344 net29
*345 net3
*346 net30
*347 net31
*348 net32
*349 net33
*350 net34
*351 net35
*352 net36
*353 net37
*354 net38
*355 net39
*356 net4
*357 net40
*358 net41
*359 net42
*360 net43
*361 net44
*362 net45
*363 net46
*364 net47
*365 net48
*366 net49
*367 net5
*368 net50
*369 net51
*370 net52
*371 net53
*372 net54
*373 net55
*374 net56
*375 net6
*376 net7
*377 net8
*378 net9
*379 FILLER_0_0_109
*380 FILLER_0_0_113
*381 FILLER_0_0_125
*382 FILLER_0_0_137
*383 FILLER_0_0_141
*384 FILLER_0_0_15
*385 FILLER_0_0_153
*386 FILLER_0_0_165
*387 FILLER_0_0_169
*388 FILLER_0_0_181
*389 FILLER_0_0_193
*390 FILLER_0_0_197
*391 FILLER_0_0_209
*392 FILLER_0_0_221
*393 FILLER_0_0_225
*394 FILLER_0_0_237
*395 FILLER_0_0_249
*396 FILLER_0_0_253
*397 FILLER_0_0_265
*398 FILLER_0_0_27
*399 FILLER_0_0_277
*400 FILLER_0_0_281
*401 FILLER_0_0_29
*402 FILLER_0_0_293
*403 FILLER_0_0_3
*404 FILLER_0_0_305
*405 FILLER_0_0_309
*406 FILLER_0_0_321
*407 FILLER_0_0_333
*408 FILLER_0_0_41
*409 FILLER_0_0_53
*410 FILLER_0_0_57
*411 FILLER_0_0_69
*412 FILLER_0_0_81
*413 FILLER_0_0_85
*414 FILLER_0_0_97
*415 FILLER_0_10_109
*416 FILLER_0_10_121
*417 FILLER_0_10_133
*418 FILLER_0_10_139
*419 FILLER_0_10_141
*420 FILLER_0_10_15
*421 FILLER_0_10_153
*422 FILLER_0_10_165
*423 FILLER_0_10_177
*424 FILLER_0_10_189
*425 FILLER_0_10_195
*426 FILLER_0_10_197
*427 FILLER_0_10_209
*428 FILLER_0_10_221
*429 FILLER_0_10_233
*430 FILLER_0_10_245
*431 FILLER_0_10_251
*432 FILLER_0_10_253
*433 FILLER_0_10_265
*434 FILLER_0_10_27
*435 FILLER_0_10_277
*436 FILLER_0_10_289
*437 FILLER_0_10_29
*438 FILLER_0_10_3
*439 FILLER_0_10_301
*440 FILLER_0_10_307
*441 FILLER_0_10_309
*442 FILLER_0_10_321
*443 FILLER_0_10_333
*444 FILLER_0_10_41
*445 FILLER_0_10_53
*446 FILLER_0_10_65
*447 FILLER_0_10_77
*448 FILLER_0_10_83
*449 FILLER_0_10_85
*450 FILLER_0_10_97
*451 FILLER_0_11_105
*452 FILLER_0_11_111
*453 FILLER_0_11_113
*454 FILLER_0_11_125
*455 FILLER_0_11_137
*456 FILLER_0_11_149
*457 FILLER_0_11_15
*458 FILLER_0_11_161
*459 FILLER_0_11_167
*460 FILLER_0_11_169
*461 FILLER_0_11_181
*462 FILLER_0_11_193
*463 FILLER_0_11_205
*464 FILLER_0_11_217
*465 FILLER_0_11_223
*466 FILLER_0_11_225
*467 FILLER_0_11_237
*468 FILLER_0_11_249
*469 FILLER_0_11_261
*470 FILLER_0_11_27
*471 FILLER_0_11_273
*472 FILLER_0_11_279
*473 FILLER_0_11_281
*474 FILLER_0_11_293
*475 FILLER_0_11_3
*476 FILLER_0_11_305
*477 FILLER_0_11_317
*478 FILLER_0_11_329
*479 FILLER_0_11_39
*480 FILLER_0_11_51
*481 FILLER_0_11_55
*482 FILLER_0_11_57
*483 FILLER_0_11_69
*484 FILLER_0_11_81
*485 FILLER_0_11_93
*486 FILLER_0_12_109
*487 FILLER_0_12_121
*488 FILLER_0_12_133
*489 FILLER_0_12_139
*490 FILLER_0_12_141
*491 FILLER_0_12_15
*492 FILLER_0_12_153
*493 FILLER_0_12_165
*494 FILLER_0_12_177
*495 FILLER_0_12_189
*496 FILLER_0_12_195
*497 FILLER_0_12_197
*498 FILLER_0_12_209
*499 FILLER_0_12_221
*500 FILLER_0_12_233
*501 FILLER_0_12_245
*502 FILLER_0_12_251
*503 FILLER_0_12_253
*504 FILLER_0_12_265
*505 FILLER_0_12_27
*506 FILLER_0_12_277
*507 FILLER_0_12_289
*508 FILLER_0_12_29
*509 FILLER_0_12_3
*510 FILLER_0_12_301
*511 FILLER_0_12_307
*512 FILLER_0_12_309
*513 FILLER_0_12_321
*514 FILLER_0_12_333
*515 FILLER_0_12_41
*516 FILLER_0_12_53
*517 FILLER_0_12_65
*518 FILLER_0_12_77
*519 FILLER_0_12_83
*520 FILLER_0_12_85
*521 FILLER_0_12_97
*522 FILLER_0_13_105
*523 FILLER_0_13_111
*524 FILLER_0_13_113
*525 FILLER_0_13_125
*526 FILLER_0_13_137
*527 FILLER_0_13_149
*528 FILLER_0_13_15
*529 FILLER_0_13_161
*530 FILLER_0_13_167
*531 FILLER_0_13_169
*532 FILLER_0_13_181
*533 FILLER_0_13_193
*534 FILLER_0_13_205
*535 FILLER_0_13_217
*536 FILLER_0_13_223
*537 FILLER_0_13_225
*538 FILLER_0_13_237
*539 FILLER_0_13_249
*540 FILLER_0_13_261
*541 FILLER_0_13_27
*542 FILLER_0_13_273
*543 FILLER_0_13_279
*544 FILLER_0_13_281
*545 FILLER_0_13_293
*546 FILLER_0_13_3
*547 FILLER_0_13_305
*548 FILLER_0_13_317
*549 FILLER_0_13_329
*550 FILLER_0_13_39
*551 FILLER_0_13_51
*552 FILLER_0_13_55
*553 FILLER_0_13_57
*554 FILLER_0_13_69
*555 FILLER_0_13_81
*556 FILLER_0_13_93
*557 FILLER_0_14_109
*558 FILLER_0_14_121
*559 FILLER_0_14_133
*560 FILLER_0_14_139
*561 FILLER_0_14_141
*562 FILLER_0_14_15
*563 FILLER_0_14_153
*564 FILLER_0_14_165
*565 FILLER_0_14_177
*566 FILLER_0_14_189
*567 FILLER_0_14_195
*568 FILLER_0_14_197
*569 FILLER_0_14_209
*570 FILLER_0_14_221
*571 FILLER_0_14_233
*572 FILLER_0_14_245
*573 FILLER_0_14_251
*574 FILLER_0_14_253
*575 FILLER_0_14_265
*576 FILLER_0_14_27
*577 FILLER_0_14_277
*578 FILLER_0_14_289
*579 FILLER_0_14_29
*580 FILLER_0_14_3
*581 FILLER_0_14_301
*582 FILLER_0_14_307
*583 FILLER_0_14_309
*584 FILLER_0_14_321
*585 FILLER_0_14_333
*586 FILLER_0_14_41
*587 FILLER_0_14_53
*588 FILLER_0_14_65
*589 FILLER_0_14_77
*590 FILLER_0_14_83
*591 FILLER_0_14_85
*592 FILLER_0_14_97
*593 FILLER_0_15_105
*594 FILLER_0_15_111
*595 FILLER_0_15_113
*596 FILLER_0_15_125
*597 FILLER_0_15_137
*598 FILLER_0_15_149
*599 FILLER_0_15_15
*600 FILLER_0_15_161
*601 FILLER_0_15_167
*602 FILLER_0_15_169
*603 FILLER_0_15_192
*604 FILLER_0_15_204
*605 FILLER_0_15_222
*606 FILLER_0_15_225
*607 FILLER_0_15_233
*608 FILLER_0_15_238
*609 FILLER_0_15_250
*610 FILLER_0_15_262
*611 FILLER_0_15_27
*612 FILLER_0_15_274
*613 FILLER_0_15_281
*614 FILLER_0_15_293
*615 FILLER_0_15_3
*616 FILLER_0_15_305
*617 FILLER_0_15_317
*618 FILLER_0_15_329
*619 FILLER_0_15_39
*620 FILLER_0_15_51
*621 FILLER_0_15_55
*622 FILLER_0_15_57
*623 FILLER_0_15_69
*624 FILLER_0_15_81
*625 FILLER_0_15_93
*626 FILLER_0_16_109
*627 FILLER_0_16_121
*628 FILLER_0_16_133
*629 FILLER_0_16_139
*630 FILLER_0_16_141
*631 FILLER_0_16_15
*632 FILLER_0_16_153
*633 FILLER_0_16_165
*634 FILLER_0_16_169
*635 FILLER_0_16_200
*636 FILLER_0_16_204
*637 FILLER_0_16_248
*638 FILLER_0_16_253
*639 FILLER_0_16_265
*640 FILLER_0_16_27
*641 FILLER_0_16_277
*642 FILLER_0_16_289
*643 FILLER_0_16_29
*644 FILLER_0_16_3
*645 FILLER_0_16_301
*646 FILLER_0_16_307
*647 FILLER_0_16_309
*648 FILLER_0_16_321
*649 FILLER_0_16_333
*650 FILLER_0_16_41
*651 FILLER_0_16_53
*652 FILLER_0_16_65
*653 FILLER_0_16_77
*654 FILLER_0_16_83
*655 FILLER_0_16_85
*656 FILLER_0_16_97
*657 FILLER_0_17_105
*658 FILLER_0_17_111
*659 FILLER_0_17_113
*660 FILLER_0_17_125
*661 FILLER_0_17_137
*662 FILLER_0_17_149
*663 FILLER_0_17_15
*664 FILLER_0_17_161
*665 FILLER_0_17_167
*666 FILLER_0_17_169
*667 FILLER_0_17_177
*668 FILLER_0_17_181
*669 FILLER_0_17_196
*670 FILLER_0_17_205
*671 FILLER_0_17_225
*672 FILLER_0_17_249
*673 FILLER_0_17_261
*674 FILLER_0_17_27
*675 FILLER_0_17_273
*676 FILLER_0_17_279
*677 FILLER_0_17_281
*678 FILLER_0_17_293
*679 FILLER_0_17_3
*680 FILLER_0_17_305
*681 FILLER_0_17_317
*682 FILLER_0_17_329
*683 FILLER_0_17_39
*684 FILLER_0_17_51
*685 FILLER_0_17_55
*686 FILLER_0_17_57
*687 FILLER_0_17_69
*688 FILLER_0_17_81
*689 FILLER_0_17_93
*690 FILLER_0_18_109
*691 FILLER_0_18_121
*692 FILLER_0_18_133
*693 FILLER_0_18_139
*694 FILLER_0_18_141
*695 FILLER_0_18_15
*696 FILLER_0_18_153
*697 FILLER_0_18_165
*698 FILLER_0_18_184
*699 FILLER_0_18_192
*700 FILLER_0_18_204
*701 FILLER_0_18_216
*702 FILLER_0_18_238
*703 FILLER_0_18_247
*704 FILLER_0_18_251
*705 FILLER_0_18_253
*706 FILLER_0_18_265
*707 FILLER_0_18_27
*708 FILLER_0_18_277
*709 FILLER_0_18_289
*710 FILLER_0_18_29
*711 FILLER_0_18_3
*712 FILLER_0_18_301
*713 FILLER_0_18_307
*714 FILLER_0_18_309
*715 FILLER_0_18_321
*716 FILLER_0_18_333
*717 FILLER_0_18_41
*718 FILLER_0_18_53
*719 FILLER_0_18_65
*720 FILLER_0_18_77
*721 FILLER_0_18_83
*722 FILLER_0_18_85
*723 FILLER_0_18_97
*724 FILLER_0_19_105
*725 FILLER_0_19_111
*726 FILLER_0_19_113
*727 FILLER_0_19_125
*728 FILLER_0_19_137
*729 FILLER_0_19_149
*730 FILLER_0_19_15
*731 FILLER_0_19_194
*732 FILLER_0_19_209
*733 FILLER_0_19_221
*734 FILLER_0_19_225
*735 FILLER_0_19_255
*736 FILLER_0_19_267
*737 FILLER_0_19_27
*738 FILLER_0_19_279
*739 FILLER_0_19_281
*740 FILLER_0_19_293
*741 FILLER_0_19_3
*742 FILLER_0_19_305
*743 FILLER_0_19_317
*744 FILLER_0_19_329
*745 FILLER_0_19_39
*746 FILLER_0_19_51
*747 FILLER_0_19_55
*748 FILLER_0_19_57
*749 FILLER_0_19_69
*750 FILLER_0_19_81
*751 FILLER_0_19_93
*752 FILLER_0_1_105
*753 FILLER_0_1_111
*754 FILLER_0_1_113
*755 FILLER_0_1_125
*756 FILLER_0_1_137
*757 FILLER_0_1_149
*758 FILLER_0_1_15
*759 FILLER_0_1_161
*760 FILLER_0_1_167
*761 FILLER_0_1_169
*762 FILLER_0_1_181
*763 FILLER_0_1_193
*764 FILLER_0_1_205
*765 FILLER_0_1_217
*766 FILLER_0_1_223
*767 FILLER_0_1_225
*768 FILLER_0_1_237
*769 FILLER_0_1_249
*770 FILLER_0_1_261
*771 FILLER_0_1_27
*772 FILLER_0_1_273
*773 FILLER_0_1_279
*774 FILLER_0_1_281
*775 FILLER_0_1_293
*776 FILLER_0_1_3
*777 FILLER_0_1_305
*778 FILLER_0_1_317
*779 FILLER_0_1_329
*780 FILLER_0_1_39
*781 FILLER_0_1_51
*782 FILLER_0_1_55
*783 FILLER_0_1_57
*784 FILLER_0_1_69
*785 FILLER_0_1_81
*786 FILLER_0_1_93
*787 FILLER_0_20_109
*788 FILLER_0_20_121
*789 FILLER_0_20_133
*790 FILLER_0_20_139
*791 FILLER_0_20_141
*792 FILLER_0_20_15
*793 FILLER_0_20_153
*794 FILLER_0_20_165
*795 FILLER_0_20_190
*796 FILLER_0_20_197
*797 FILLER_0_20_209
*798 FILLER_0_20_216
*799 FILLER_0_20_233
*800 FILLER_0_20_240
*801 FILLER_0_20_253
*802 FILLER_0_20_265
*803 FILLER_0_20_27
*804 FILLER_0_20_277
*805 FILLER_0_20_289
*806 FILLER_0_20_29
*807 FILLER_0_20_3
*808 FILLER_0_20_301
*809 FILLER_0_20_307
*810 FILLER_0_20_309
*811 FILLER_0_20_321
*812 FILLER_0_20_333
*813 FILLER_0_20_41
*814 FILLER_0_20_53
*815 FILLER_0_20_65
*816 FILLER_0_20_77
*817 FILLER_0_20_83
*818 FILLER_0_20_85
*819 FILLER_0_20_97
*820 FILLER_0_21_105
*821 FILLER_0_21_111
*822 FILLER_0_21_113
*823 FILLER_0_21_119
*824 FILLER_0_21_127
*825 FILLER_0_21_138
*826 FILLER_0_21_15
*827 FILLER_0_21_150
*828 FILLER_0_21_162
*829 FILLER_0_21_169
*830 FILLER_0_21_177
*831 FILLER_0_21_182
*832 FILLER_0_21_194
*833 FILLER_0_21_202
*834 FILLER_0_21_225
*835 FILLER_0_21_250
*836 FILLER_0_21_262
*837 FILLER_0_21_27
*838 FILLER_0_21_274
*839 FILLER_0_21_281
*840 FILLER_0_21_293
*841 FILLER_0_21_3
*842 FILLER_0_21_305
*843 FILLER_0_21_317
*844 FILLER_0_21_329
*845 FILLER_0_21_39
*846 FILLER_0_21_51
*847 FILLER_0_21_55
*848 FILLER_0_21_57
*849 FILLER_0_21_69
*850 FILLER_0_21_81
*851 FILLER_0_21_93
*852 FILLER_0_22_109
*853 FILLER_0_22_135
*854 FILLER_0_22_139
*855 FILLER_0_22_145
*856 FILLER_0_22_15
*857 FILLER_0_22_157
*858 FILLER_0_22_169
*859 FILLER_0_22_181
*860 FILLER_0_22_190
*861 FILLER_0_22_197
*862 FILLER_0_22_206
*863 FILLER_0_22_214
*864 FILLER_0_22_219
*865 FILLER_0_22_223
*866 FILLER_0_22_233
*867 FILLER_0_22_245
*868 FILLER_0_22_251
*869 FILLER_0_22_253
*870 FILLER_0_22_258
*871 FILLER_0_22_266
*872 FILLER_0_22_27
*873 FILLER_0_22_288
*874 FILLER_0_22_29
*875 FILLER_0_22_3
*876 FILLER_0_22_300
*877 FILLER_0_22_309
*878 FILLER_0_22_321
*879 FILLER_0_22_333
*880 FILLER_0_22_41
*881 FILLER_0_22_53
*882 FILLER_0_22_65
*883 FILLER_0_22_77
*884 FILLER_0_22_83
*885 FILLER_0_22_85
*886 FILLER_0_22_97
*887 FILLER_0_23_105
*888 FILLER_0_23_111
*889 FILLER_0_23_113
*890 FILLER_0_23_121
*891 FILLER_0_23_128
*892 FILLER_0_23_15
*893 FILLER_0_23_162
*894 FILLER_0_23_220
*895 FILLER_0_23_228
*896 FILLER_0_23_240
*897 FILLER_0_23_267
*898 FILLER_0_23_27
*899 FILLER_0_23_274
*900 FILLER_0_23_284
*901 FILLER_0_23_296
*902 FILLER_0_23_3
*903 FILLER_0_23_308
*904 FILLER_0_23_320
*905 FILLER_0_23_332
*906 FILLER_0_23_39
*907 FILLER_0_23_51
*908 FILLER_0_23_55
*909 FILLER_0_23_57
*910 FILLER_0_23_69
*911 FILLER_0_23_81
*912 FILLER_0_23_93
*913 FILLER_0_24_109
*914 FILLER_0_24_15
*915 FILLER_0_24_176
*916 FILLER_0_24_187
*917 FILLER_0_24_191
*918 FILLER_0_24_195
*919 FILLER_0_24_197
*920 FILLER_0_24_209
*921 FILLER_0_24_213
*922 FILLER_0_24_235
*923 FILLER_0_24_245
*924 FILLER_0_24_251
*925 FILLER_0_24_253
*926 FILLER_0_24_259
*927 FILLER_0_24_27
*928 FILLER_0_24_270
*929 FILLER_0_24_29
*930 FILLER_0_24_295
*931 FILLER_0_24_3
*932 FILLER_0_24_307
*933 FILLER_0_24_309
*934 FILLER_0_24_321
*935 FILLER_0_24_333
*936 FILLER_0_24_41
*937 FILLER_0_24_53
*938 FILLER_0_24_65
*939 FILLER_0_24_77
*940 FILLER_0_24_83
*941 FILLER_0_24_85
*942 FILLER_0_24_97
*943 FILLER_0_25_105
*944 FILLER_0_25_111
*945 FILLER_0_25_144
*946 FILLER_0_25_15
*947 FILLER_0_25_159
*948 FILLER_0_25_167
*949 FILLER_0_25_177
*950 FILLER_0_25_181
*951 FILLER_0_25_209
*952 FILLER_0_25_223
*953 FILLER_0_25_225
*954 FILLER_0_25_251
*955 FILLER_0_25_255
*956 FILLER_0_25_27
*957 FILLER_0_25_275
*958 FILLER_0_25_279
*959 FILLER_0_25_281
*960 FILLER_0_25_297
*961 FILLER_0_25_3
*962 FILLER_0_25_309
*963 FILLER_0_25_321
*964 FILLER_0_25_333
*965 FILLER_0_25_39
*966 FILLER_0_25_51
*967 FILLER_0_25_55
*968 FILLER_0_25_57
*969 FILLER_0_25_69
*970 FILLER_0_25_81
*971 FILLER_0_25_93
*972 FILLER_0_26_109
*973 FILLER_0_26_138
*974 FILLER_0_26_149
*975 FILLER_0_26_15
*976 FILLER_0_26_172
*977 FILLER_0_26_184
*978 FILLER_0_26_194
*979 FILLER_0_26_213
*980 FILLER_0_26_251
*981 FILLER_0_26_261
*982 FILLER_0_26_27
*983 FILLER_0_26_286
*984 FILLER_0_26_29
*985 FILLER_0_26_298
*986 FILLER_0_26_3
*987 FILLER_0_26_306
*988 FILLER_0_26_309
*989 FILLER_0_26_321
*990 FILLER_0_26_333
*991 FILLER_0_26_41
*992 FILLER_0_26_53
*993 FILLER_0_26_65
*994 FILLER_0_26_77
*995 FILLER_0_26_83
*996 FILLER_0_26_85
*997 FILLER_0_26_97
*998 FILLER_0_27_105
*999 FILLER_0_27_111
*1000 FILLER_0_27_141
*1001 FILLER_0_27_145
*1002 FILLER_0_27_15
*1003 FILLER_0_27_166
*1004 FILLER_0_27_172
*1005 FILLER_0_27_178
*1006 FILLER_0_27_185
*1007 FILLER_0_27_193
*1008 FILLER_0_27_205
*1009 FILLER_0_27_213
*1010 FILLER_0_27_219
*1011 FILLER_0_27_223
*1012 FILLER_0_27_225
*1013 FILLER_0_27_240
*1014 FILLER_0_27_252
*1015 FILLER_0_27_27
*1016 FILLER_0_27_270
*1017 FILLER_0_27_275
*1018 FILLER_0_27_279
*1019 FILLER_0_27_289
*1020 FILLER_0_27_293
*1021 FILLER_0_27_297
*1022 FILLER_0_27_3
*1023 FILLER_0_27_301
*1024 FILLER_0_27_313
*1025 FILLER_0_27_325
*1026 FILLER_0_27_333
*1027 FILLER_0_27_39
*1028 FILLER_0_27_51
*1029 FILLER_0_27_55
*1030 FILLER_0_27_57
*1031 FILLER_0_27_69
*1032 FILLER_0_27_81
*1033 FILLER_0_27_93
*1034 FILLER_0_28_109
*1035 FILLER_0_28_121
*1036 FILLER_0_28_133
*1037 FILLER_0_28_139
*1038 FILLER_0_28_141
*1039 FILLER_0_28_149
*1040 FILLER_0_28_15
*1041 FILLER_0_28_197
*1042 FILLER_0_28_209
*1043 FILLER_0_28_223
*1044 FILLER_0_28_231
*1045 FILLER_0_28_235
*1046 FILLER_0_28_244
*1047 FILLER_0_28_253
*1048 FILLER_0_28_269
*1049 FILLER_0_28_27
*1050 FILLER_0_28_29
*1051 FILLER_0_28_3
*1052 FILLER_0_28_309
*1053 FILLER_0_28_321
*1054 FILLER_0_28_333
*1055 FILLER_0_28_41
*1056 FILLER_0_28_53
*1057 FILLER_0_28_65
*1058 FILLER_0_28_77
*1059 FILLER_0_28_83
*1060 FILLER_0_28_85
*1061 FILLER_0_28_97
*1062 FILLER_0_29_105
*1063 FILLER_0_29_111
*1064 FILLER_0_29_113
*1065 FILLER_0_29_121
*1066 FILLER_0_29_126
*1067 FILLER_0_29_138
*1068 FILLER_0_29_142
*1069 FILLER_0_29_15
*1070 FILLER_0_29_155
*1071 FILLER_0_29_159
*1072 FILLER_0_29_166
*1073 FILLER_0_29_184
*1074 FILLER_0_29_188
*1075 FILLER_0_29_197
*1076 FILLER_0_29_205
*1077 FILLER_0_29_209
*1078 FILLER_0_29_245
*1079 FILLER_0_29_27
*1080 FILLER_0_29_279
*1081 FILLER_0_29_285
*1082 FILLER_0_29_299
*1083 FILLER_0_29_3
*1084 FILLER_0_29_311
*1085 FILLER_0_29_323
*1086 FILLER_0_29_39
*1087 FILLER_0_29_51
*1088 FILLER_0_29_55
*1089 FILLER_0_29_57
*1090 FILLER_0_29_69
*1091 FILLER_0_29_81
*1092 FILLER_0_29_93
*1093 FILLER_0_2_109
*1094 FILLER_0_2_121
*1095 FILLER_0_2_133
*1096 FILLER_0_2_139
*1097 FILLER_0_2_141
*1098 FILLER_0_2_15
*1099 FILLER_0_2_153
*1100 FILLER_0_2_165
*1101 FILLER_0_2_177
*1102 FILLER_0_2_189
*1103 FILLER_0_2_195
*1104 FILLER_0_2_197
*1105 FILLER_0_2_209
*1106 FILLER_0_2_221
*1107 FILLER_0_2_233
*1108 FILLER_0_2_245
*1109 FILLER_0_2_251
*1110 FILLER_0_2_253
*1111 FILLER_0_2_265
*1112 FILLER_0_2_27
*1113 FILLER_0_2_277
*1114 FILLER_0_2_289
*1115 FILLER_0_2_29
*1116 FILLER_0_2_3
*1117 FILLER_0_2_301
*1118 FILLER_0_2_307
*1119 FILLER_0_2_309
*1120 FILLER_0_2_321
*1121 FILLER_0_2_333
*1122 FILLER_0_2_41
*1123 FILLER_0_2_53
*1124 FILLER_0_2_65
*1125 FILLER_0_2_77
*1126 FILLER_0_2_83
*1127 FILLER_0_2_85
*1128 FILLER_0_2_97
*1129 FILLER_0_30_109
*1130 FILLER_0_30_115
*1131 FILLER_0_30_139
*1132 FILLER_0_30_149
*1133 FILLER_0_30_15
*1134 FILLER_0_30_179
*1135 FILLER_0_30_189
*1136 FILLER_0_30_195
*1137 FILLER_0_30_197
*1138 FILLER_0_30_238
*1139 FILLER_0_30_250
*1140 FILLER_0_30_253
*1141 FILLER_0_30_27
*1142 FILLER_0_30_280
*1143 FILLER_0_30_29
*1144 FILLER_0_30_292
*1145 FILLER_0_30_3
*1146 FILLER_0_30_304
*1147 FILLER_0_30_309
*1148 FILLER_0_30_321
*1149 FILLER_0_30_333
*1150 FILLER_0_30_41
*1151 FILLER_0_30_53
*1152 FILLER_0_30_65
*1153 FILLER_0_30_77
*1154 FILLER_0_30_83
*1155 FILLER_0_30_85
*1156 FILLER_0_30_97
*1157 FILLER_0_31_105
*1158 FILLER_0_31_111
*1159 FILLER_0_31_113
*1160 FILLER_0_31_15
*1161 FILLER_0_31_151
*1162 FILLER_0_31_165
*1163 FILLER_0_31_191
*1164 FILLER_0_31_214
*1165 FILLER_0_31_222
*1166 FILLER_0_31_228
*1167 FILLER_0_31_232
*1168 FILLER_0_31_236
*1169 FILLER_0_31_248
*1170 FILLER_0_31_27
*1171 FILLER_0_31_278
*1172 FILLER_0_31_292
*1173 FILLER_0_31_298
*1174 FILLER_0_31_3
*1175 FILLER_0_31_302
*1176 FILLER_0_31_318
*1177 FILLER_0_31_325
*1178 FILLER_0_31_39
*1179 FILLER_0_31_51
*1180 FILLER_0_31_55
*1181 FILLER_0_31_57
*1182 FILLER_0_31_69
*1183 FILLER_0_31_81
*1184 FILLER_0_31_93
*1185 FILLER_0_32_109
*1186 FILLER_0_32_115
*1187 FILLER_0_32_139
*1188 FILLER_0_32_148
*1189 FILLER_0_32_15
*1190 FILLER_0_32_163
*1191 FILLER_0_32_175
*1192 FILLER_0_32_205
*1193 FILLER_0_32_209
*1194 FILLER_0_32_250
*1195 FILLER_0_32_253
*1196 FILLER_0_32_27
*1197 FILLER_0_32_278
*1198 FILLER_0_32_286
*1199 FILLER_0_32_29
*1200 FILLER_0_32_3
*1201 FILLER_0_32_309
*1202 FILLER_0_32_333
*1203 FILLER_0_32_41
*1204 FILLER_0_32_53
*1205 FILLER_0_32_65
*1206 FILLER_0_32_77
*1207 FILLER_0_32_83
*1208 FILLER_0_32_85
*1209 FILLER_0_32_97
*1210 FILLER_0_33_105
*1211 FILLER_0_33_111
*1212 FILLER_0_33_113
*1213 FILLER_0_33_121
*1214 FILLER_0_33_126
*1215 FILLER_0_33_133
*1216 FILLER_0_33_137
*1217 FILLER_0_33_145
*1218 FILLER_0_33_15
*1219 FILLER_0_33_167
*1220 FILLER_0_33_169
*1221 FILLER_0_33_181
*1222 FILLER_0_33_185
*1223 FILLER_0_33_189
*1224 FILLER_0_33_193
*1225 FILLER_0_33_197
*1226 FILLER_0_33_209
*1227 FILLER_0_33_221
*1228 FILLER_0_33_225
*1229 FILLER_0_33_237
*1230 FILLER_0_33_244
*1231 FILLER_0_33_256
*1232 FILLER_0_33_27
*1233 FILLER_0_33_270
*1234 FILLER_0_33_278
*1235 FILLER_0_33_293
*1236 FILLER_0_33_3
*1237 FILLER_0_33_318
*1238 FILLER_0_33_334
*1239 FILLER_0_33_39
*1240 FILLER_0_33_51
*1241 FILLER_0_33_55
*1242 FILLER_0_33_57
*1243 FILLER_0_33_69
*1244 FILLER_0_33_81
*1245 FILLER_0_33_93
*1246 FILLER_0_34_109
*1247 FILLER_0_34_113
*1248 FILLER_0_34_137
*1249 FILLER_0_34_148
*1250 FILLER_0_34_15
*1251 FILLER_0_34_160
*1252 FILLER_0_34_168
*1253 FILLER_0_34_176
*1254 FILLER_0_34_182
*1255 FILLER_0_34_194
*1256 FILLER_0_34_197
*1257 FILLER_0_34_202
*1258 FILLER_0_34_210
*1259 FILLER_0_34_248
*1260 FILLER_0_34_253
*1261 FILLER_0_34_259
*1262 FILLER_0_34_27
*1263 FILLER_0_34_29
*1264 FILLER_0_34_3
*1265 FILLER_0_34_41
*1266 FILLER_0_34_53
*1267 FILLER_0_34_65
*1268 FILLER_0_34_77
*1269 FILLER_0_34_83
*1270 FILLER_0_34_85
*1271 FILLER_0_34_97
*1272 FILLER_0_35_105
*1273 FILLER_0_35_111
*1274 FILLER_0_35_113
*1275 FILLER_0_35_117
*1276 FILLER_0_35_15
*1277 FILLER_0_35_157
*1278 FILLER_0_35_192
*1279 FILLER_0_35_204
*1280 FILLER_0_35_222
*1281 FILLER_0_35_225
*1282 FILLER_0_35_233
*1283 FILLER_0_35_27
*1284 FILLER_0_35_278
*1285 FILLER_0_35_3
*1286 FILLER_0_35_310
*1287 FILLER_0_35_39
*1288 FILLER_0_35_51
*1289 FILLER_0_35_55
*1290 FILLER_0_35_57
*1291 FILLER_0_35_69
*1292 FILLER_0_35_81
*1293 FILLER_0_35_93
*1294 FILLER_0_36_109
*1295 FILLER_0_36_148
*1296 FILLER_0_36_15
*1297 FILLER_0_36_200
*1298 FILLER_0_36_229
*1299 FILLER_0_36_262
*1300 FILLER_0_36_27
*1301 FILLER_0_36_282
*1302 FILLER_0_36_29
*1303 FILLER_0_36_3
*1304 FILLER_0_36_306
*1305 FILLER_0_36_333
*1306 FILLER_0_36_41
*1307 FILLER_0_36_53
*1308 FILLER_0_36_65
*1309 FILLER_0_36_77
*1310 FILLER_0_36_83
*1311 FILLER_0_36_85
*1312 FILLER_0_36_97
*1313 FILLER_0_37_105
*1314 FILLER_0_37_111
*1315 FILLER_0_37_113
*1316 FILLER_0_37_121
*1317 FILLER_0_37_147
*1318 FILLER_0_37_15
*1319 FILLER_0_37_155
*1320 FILLER_0_37_165
*1321 FILLER_0_37_192
*1322 FILLER_0_37_198
*1323 FILLER_0_37_222
*1324 FILLER_0_37_234
*1325 FILLER_0_37_27
*1326 FILLER_0_37_277
*1327 FILLER_0_37_281
*1328 FILLER_0_37_3
*1329 FILLER_0_37_334
*1330 FILLER_0_37_39
*1331 FILLER_0_37_51
*1332 FILLER_0_37_55
*1333 FILLER_0_37_57
*1334 FILLER_0_37_69
*1335 FILLER_0_37_81
*1336 FILLER_0_37_93
*1337 FILLER_0_38_10
*1338 FILLER_0_38_102
*1339 FILLER_0_38_106
*1340 FILLER_0_38_110
*1341 FILLER_0_38_113
*1342 FILLER_0_38_118
*1343 FILLER_0_38_122
*1344 FILLER_0_38_126
*1345 FILLER_0_38_138
*1346 FILLER_0_38_14
*1347 FILLER_0_38_141
*1348 FILLER_0_38_153
*1349 FILLER_0_38_165
*1350 FILLER_0_38_169
*1351 FILLER_0_38_18
*1352 FILLER_0_38_180
*1353 FILLER_0_38_192
*1354 FILLER_0_38_197
*1355 FILLER_0_38_209
*1356 FILLER_0_38_216
*1357 FILLER_0_38_22
*1358 FILLER_0_38_233
*1359 FILLER_0_38_245
*1360 FILLER_0_38_251
*1361 FILLER_0_38_273
*1362 FILLER_0_38_278
*1363 FILLER_0_38_281
*1364 FILLER_0_38_286
*1365 FILLER_0_38_298
*1366 FILLER_0_38_32
*1367 FILLER_0_38_38
*1368 FILLER_0_38_42
*1369 FILLER_0_38_46
*1370 FILLER_0_38_50
*1371 FILLER_0_38_54
*1372 FILLER_0_38_57
*1373 FILLER_0_38_6
*1374 FILLER_0_38_62
*1375 FILLER_0_38_66
*1376 FILLER_0_38_70
*1377 FILLER_0_38_74
*1378 FILLER_0_38_78
*1379 FILLER_0_38_88
*1380 FILLER_0_38_94
*1381 FILLER_0_38_98
*1382 FILLER_0_3_105
*1383 FILLER_0_3_111
*1384 FILLER_0_3_113
*1385 FILLER_0_3_125
*1386 FILLER_0_3_137
*1387 FILLER_0_3_149
*1388 FILLER_0_3_15
*1389 FILLER_0_3_161
*1390 FILLER_0_3_167
*1391 FILLER_0_3_169
*1392 FILLER_0_3_181
*1393 FILLER_0_3_193
*1394 FILLER_0_3_205
*1395 FILLER_0_3_217
*1396 FILLER_0_3_223
*1397 FILLER_0_3_225
*1398 FILLER_0_3_237
*1399 FILLER_0_3_249
*1400 FILLER_0_3_261
*1401 FILLER_0_3_27
*1402 FILLER_0_3_273
*1403 FILLER_0_3_279
*1404 FILLER_0_3_281
*1405 FILLER_0_3_293
*1406 FILLER_0_3_3
*1407 FILLER_0_3_305
*1408 FILLER_0_3_317
*1409 FILLER_0_3_329
*1410 FILLER_0_3_39
*1411 FILLER_0_3_51
*1412 FILLER_0_3_55
*1413 FILLER_0_3_57
*1414 FILLER_0_3_69
*1415 FILLER_0_3_81
*1416 FILLER_0_3_93
*1417 FILLER_0_4_109
*1418 FILLER_0_4_121
*1419 FILLER_0_4_133
*1420 FILLER_0_4_139
*1421 FILLER_0_4_141
*1422 FILLER_0_4_15
*1423 FILLER_0_4_153
*1424 FILLER_0_4_165
*1425 FILLER_0_4_177
*1426 FILLER_0_4_189
*1427 FILLER_0_4_195
*1428 FILLER_0_4_197
*1429 FILLER_0_4_209
*1430 FILLER_0_4_221
*1431 FILLER_0_4_233
*1432 FILLER_0_4_245
*1433 FILLER_0_4_251
*1434 FILLER_0_4_253
*1435 FILLER_0_4_265
*1436 FILLER_0_4_27
*1437 FILLER_0_4_277
*1438 FILLER_0_4_289
*1439 FILLER_0_4_29
*1440 FILLER_0_4_3
*1441 FILLER_0_4_301
*1442 FILLER_0_4_307
*1443 FILLER_0_4_309
*1444 FILLER_0_4_321
*1445 FILLER_0_4_333
*1446 FILLER_0_4_41
*1447 FILLER_0_4_53
*1448 FILLER_0_4_65
*1449 FILLER_0_4_77
*1450 FILLER_0_4_83
*1451 FILLER_0_4_85
*1452 FILLER_0_4_97
*1453 FILLER_0_5_105
*1454 FILLER_0_5_111
*1455 FILLER_0_5_113
*1456 FILLER_0_5_125
*1457 FILLER_0_5_137
*1458 FILLER_0_5_149
*1459 FILLER_0_5_15
*1460 FILLER_0_5_161
*1461 FILLER_0_5_167
*1462 FILLER_0_5_169
*1463 FILLER_0_5_181
*1464 FILLER_0_5_193
*1465 FILLER_0_5_205
*1466 FILLER_0_5_217
*1467 FILLER_0_5_223
*1468 FILLER_0_5_225
*1469 FILLER_0_5_237
*1470 FILLER_0_5_249
*1471 FILLER_0_5_261
*1472 FILLER_0_5_27
*1473 FILLER_0_5_273
*1474 FILLER_0_5_279
*1475 FILLER_0_5_281
*1476 FILLER_0_5_293
*1477 FILLER_0_5_3
*1478 FILLER_0_5_305
*1479 FILLER_0_5_317
*1480 FILLER_0_5_329
*1481 FILLER_0_5_39
*1482 FILLER_0_5_51
*1483 FILLER_0_5_55
*1484 FILLER_0_5_57
*1485 FILLER_0_5_69
*1486 FILLER_0_5_81
*1487 FILLER_0_5_93
*1488 FILLER_0_6_109
*1489 FILLER_0_6_121
*1490 FILLER_0_6_133
*1491 FILLER_0_6_139
*1492 FILLER_0_6_141
*1493 FILLER_0_6_15
*1494 FILLER_0_6_153
*1495 FILLER_0_6_165
*1496 FILLER_0_6_177
*1497 FILLER_0_6_189
*1498 FILLER_0_6_195
*1499 FILLER_0_6_197
*1500 FILLER_0_6_209
*1501 FILLER_0_6_221
*1502 FILLER_0_6_233
*1503 FILLER_0_6_245
*1504 FILLER_0_6_251
*1505 FILLER_0_6_253
*1506 FILLER_0_6_265
*1507 FILLER_0_6_27
*1508 FILLER_0_6_277
*1509 FILLER_0_6_289
*1510 FILLER_0_6_29
*1511 FILLER_0_6_3
*1512 FILLER_0_6_301
*1513 FILLER_0_6_307
*1514 FILLER_0_6_309
*1515 FILLER_0_6_321
*1516 FILLER_0_6_333
*1517 FILLER_0_6_41
*1518 FILLER_0_6_53
*1519 FILLER_0_6_65
*1520 FILLER_0_6_77
*1521 FILLER_0_6_83
*1522 FILLER_0_6_85
*1523 FILLER_0_6_97
*1524 FILLER_0_7_105
*1525 FILLER_0_7_111
*1526 FILLER_0_7_113
*1527 FILLER_0_7_125
*1528 FILLER_0_7_137
*1529 FILLER_0_7_149
*1530 FILLER_0_7_15
*1531 FILLER_0_7_161
*1532 FILLER_0_7_167
*1533 FILLER_0_7_169
*1534 FILLER_0_7_181
*1535 FILLER_0_7_193
*1536 FILLER_0_7_205
*1537 FILLER_0_7_217
*1538 FILLER_0_7_223
*1539 FILLER_0_7_225
*1540 FILLER_0_7_237
*1541 FILLER_0_7_249
*1542 FILLER_0_7_261
*1543 FILLER_0_7_27
*1544 FILLER_0_7_273
*1545 FILLER_0_7_279
*1546 FILLER_0_7_281
*1547 FILLER_0_7_293
*1548 FILLER_0_7_3
*1549 FILLER_0_7_305
*1550 FILLER_0_7_317
*1551 FILLER_0_7_329