*SPEF "ieee 1481-1999"
*DESIGN "tt_um_7seg_animated"
*DATE "18:32:32 Friday April 19, 2024"
*VENDOR "The OpenROAD Project"
*PROGRAM "OpenROAD"
*VERSION "0889970d1790a2617e69f253221b8bd7626e51dc"
*DESIGN_FLOW "NAME_SCOPE LOCAL" "PIN_CAP NONE"
*DIVIDER /
*DELIMITER :
*BUS_DELIMITER []
*T_UNIT 1 NS
*C_UNIT 1 PF
*R_UNIT 1 OHM
*L_UNIT 1 HENRY

*NAME_MAP
*3 clk
*4 ena
*5 rst_n
*6 ui_in[0]
*7 ui_in[1]
*8 ui_in[2]
*9 ui_in[3]
*10 ui_in[4]
*11 ui_in[5]
*12 ui_in[6]
*13 ui_in[7]
*14 uio_in[0]
*15 uio_in[1]
*16 uio_in[2]
*17 uio_in[3]
*18 uio_in[4]
*19 uio_in[5]
*20 uio_in[6]
*21 uio_in[7]
*22 net22
*23 net23
*24 net24
*25 net25
*26 net26
*27 net27
*28 net28
*29 net29
*30 net30
*31 net31
*32 net32
*33 net33
*34 net34
*35 net35
*36 net36
*37 net37
*38 uo_out[0]
*39 uo_out[1]
*40 uo_out[2]
*41 uo_out[3]
*42 uo_out[4]
*43 uo_out[5]
*44 uo_out[6]
*45 uo_out[7]
*46 _000_
*47 _001_
*48 _002_
*49 _003_
*50 _004_
*51 _005_
*52 _006_
*53 _007_
*54 _008_
*55 _009_
*56 _010_
*57 _011_
*58 _012_
*59 _013_
*60 _014_
*61 _015_
*62 _016_
*63 _017_
*64 _018_
*65 _019_
*66 _020_
*67 _021_
*68 _022_
*69 _023_
*70 _024_
*71 _025_
*72 _026_
*73 _027_
*74 _028_
*75 _029_
*76 _030_
*77 _031_
*78 _032_
*79 _033_
*80 _034_
*81 _035_
*82 _036_
*83 _037_
*84 _038_
*85 _039_
*86 _040_
*87 _041_
*88 _042_
*89 _043_
*90 _044_
*91 _045_
*92 _046_
*93 _047_
*94 _048_
*95 _049_
*96 _050_
*97 _051_
*98 _052_
*99 _053_
*100 _054_
*101 _055_
*102 _056_
*103 _057_
*104 _058_
*105 _059_
*106 _060_
*107 _061_
*108 _062_
*109 _063_
*110 _064_
*111 _065_
*112 _066_
*113 _067_
*114 _068_
*115 _069_
*116 _070_
*117 _071_
*118 _072_
*119 _073_
*120 _074_
*121 _075_
*122 _076_
*123 _077_
*124 _078_
*125 _079_
*126 _080_
*127 _081_
*128 _082_
*129 _083_
*130 _084_
*131 _085_
*132 _086_
*133 _087_
*134 _088_
*135 _089_
*136 _090_
*137 _091_
*138 _092_
*139 _093_
*140 _094_
*141 _095_
*142 _096_
*143 _097_
*144 _098_
*145 _099_
*146 _100_
*147 _101_
*148 _102_
*149 _103_
*150 _104_
*151 _105_
*152 _106_
*153 _107_
*154 _108_
*155 _109_
*156 _110_
*157 _111_
*158 _112_
*159 _113_
*160 _114_
*161 _115_
*162 _116_
*163 _117_
*164 _118_
*165 _119_
*166 _120_
*167 _121_
*168 _122_
*169 _123_
*170 _124_
*171 _125_
*172 _126_
*173 _127_
*174 _128_
*175 _129_
*176 _130_
*177 _131_
*178 _132_
*179 _133_
*180 _134_
*181 _135_
*182 _136_
*183 _137_
*184 _138_
*185 _139_
*186 _140_
*187 _141_
*188 _142_
*189 _143_
*190 _144_
*191 _145_
*192 _146_
*193 _147_
*194 _148_
*195 _149_
*196 _150_
*197 _151_
*198 _152_
*199 _153_
*200 _154_
*201 _155_
*202 _156_
*203 _157_
*204 _158_
*205 _159_
*206 _160_
*207 _161_
*208 _162_
*209 _163_
*210 _164_
*211 _165_
*212 _166_
*213 _167_
*214 _168_
*215 _169_
*216 _170_
*217 _171_
*218 _172_
*219 _173_
*220 _174_
*221 _175_
*222 _176_
*223 _177_
*224 _178_
*225 _179_
*226 _180_
*227 _181_
*228 _182_
*229 _183_
*230 _184_
*231 _185_
*232 _186_
*233 _187_
*234 _188_
*235 _189_
*236 _190_
*237 _191_
*238 _192_
*239 _193_
*240 _194_
*241 _195_
*242 _196_
*243 _197_
*244 _198_
*245 _199_
*246 _200_
*247 _201_
*248 _202_
*249 _203_
*250 _204_
*251 _205_
*252 _206_
*253 _207_
*254 _208_
*255 _209_
*256 _210_
*257 _211_
*258 _212_
*259 _213_
*260 _214_
*261 _215_
*262 _216_
*263 _217_
*264 _218_
*265 _219_
*266 _220_
*267 _221_
*268 _222_
*269 _223_
*270 _224_
*271 _225_
*272 _226_
*273 _227_
*274 _228_
*275 _229_
*276 _230_
*277 _231_
*278 _232_
*279 _233_
*280 _234_
*281 _235_
*282 _236_
*283 _237_
*284 _238_
*285 _239_
*286 _240_
*287 _241_
*288 _242_
*289 _243_
*290 _244_
*291 _245_
*292 _246_
*293 _247_
*294 _248_
*295 _249_
*296 _250_
*297 _251_
*298 animator\.charAvailable_prev
*299 animator\.charInput\[0\]
*300 animator\.charInput\[1\]
*301 animator\.charInput\[2\]
*302 animator\.charInput\[3\]
*303 animator\.charInput\[4\]
*304 animator\.charInput\[5\]
*305 animator\.charInput\[6\]
*306 animator\.clk60
*307 animator\.clk60_prev
*308 animator\.currentChar\[0\]
*309 animator\.currentChar\[1\]
*310 animator\.currentChar\[2\]
*311 animator\.currentChar\[3\]
*312 animator\.currentChar\[4\]
*313 animator\.currentChar\[5\]
*314 animator\.currentChar\[6\]
*315 animator\.out\[0\]
*316 animator\.out\[1\]
*317 animator\.out\[2\]
*318 animator\.out\[3\]
*319 animator\.out\[4\]
*320 animator\.out\[5\]
*321 animator\.out\[6\]
*322 animator\.reset
*323 animator\.segChecked\[0\]
*324 animator\.segChecked\[1\]
*325 animator\.segChecked\[2\]
*326 animator\.segChecked\[3\]
*327 animator\.segChecked\[4\]
*328 animator\.segChecked\[5\]
*329 animator\.segChecked\[6\]
*330 animator\.segIndex\[0\]
*331 animator\.segIndex\[1\]
*332 animator\.segIndex\[2\]
*333 animator\.state\[1\]
*334 animator\.state\[2\]
*335 animator\.timerCount\[0\]
*336 animator\.timerCount\[1\]
*337 animator\.timerCount\[2\]
*338 animator\.timerCount\[3\]
*339 animator\.timerCount\[4\]
*340 animator\.timerCount\[5\]
*341 clk_divider\.clkPwm
*342 clk_divider\.count2\[0\]
*343 clk_divider\.count2\[1\]
*344 clk_divider\.count2\[2\]
*345 clk_divider\.count2\[3\]
*346 clk_divider\.count2\[4\]
*347 clk_divider\.count2\[5\]
*348 clk_divider\.count2\[6\]
*349 clk_divider\.count2\[7\]
*350 clk_divider\.count2\[8\]
*351 clk_divider\.count2\[9\]
*352 clk_divider\.count\[0\]
*353 clk_divider\.count\[1\]
*354 clk_divider\.count\[2\]
*355 clk_divider\.count\[3\]
*356 clk_divider\.count\[4\]
*357 clk_divider\.count\[5\]
*358 clknet_0_clk
*359 clknet_3_0__leaf_clk
*360 clknet_3_1__leaf_clk
*361 clknet_3_2__leaf_clk
*362 clknet_3_3__leaf_clk
*363 clknet_3_4__leaf_clk
*364 clknet_3_5__leaf_clk
*365 clknet_3_6__leaf_clk
*366 clknet_3_7__leaf_clk
*367 net1
*368 net10
*369 net11
*370 net12
*371 net13
*372 net14
*373 net15
*374 net16
*375 net17
*376 net18
*377 net19
*378 net2
*379 net20
*380 net21
*381 net3
*382 net38
*383 net39
*384 net4
*385 net40
*386 net41
*387 net42
*388 net43
*389 net44
*390 net45
*391 net46
*392 net47
*393 net48
*394 net49
*395 net5
*396 net50
*397 net51
*398 net52
*399 net53
*400 net54
*401 net55
*402 net56
*403 net57
*404 net58
*405 net59
*406 net6
*407 net60
*408 net61
*409 net7
*410 net8
*411 net9
*412 pwm\.out
*413 pwm\.pwmCount\[0\]
*414 pwm\.pwmCount\[1\]
*415 pwm\.pwmCount\[2\]
*416 pwm\.pwmCount\[3\]
*417 pwm\.pwmCount\[4\]
*418 pwm\.pwmCount\[5\]
*419 pwm\.pwmCount\[6\]
*420 pwm\.pwmCount\[7\]
*421 FILLER_0_0_109
*422 FILLER_0_0_113
*423 FILLER_0_0_125
*424 FILLER_0_0_137
*425 FILLER_0_0_141
*426 FILLER_0_0_15
*427 FILLER_0_0_153
*428 FILLER_0_0_165
*429 FILLER_0_0_169
*430 FILLER_0_0_181
*431 FILLER_0_0_193
*432 FILLER_0_0_197
*433 FILLER_0_0_209
*434 FILLER_0_0_221
*435 FILLER_0_0_225
*436 FILLER_0_0_237
*437 FILLER_0_0_249
*438 FILLER_0_0_253
*439 FILLER_0_0_265
*440 FILLER_0_0_27
*441 FILLER_0_0_277
*442 FILLER_0_0_281
*443 FILLER_0_0_29
*444 FILLER_0_0_293
*445 FILLER_0_0_3
*446 FILLER_0_0_305
*447 FILLER_0_0_309
*448 FILLER_0_0_321
*449 FILLER_0_0_333
*450 FILLER_0_0_41
*451 FILLER_0_0_53
*452 FILLER_0_0_57
*453 FILLER_0_0_69
*454 FILLER_0_0_81
*455 FILLER_0_0_85
*456 FILLER_0_0_97
*457 FILLER_0_10_109
*458 FILLER_0_10_121
*459 FILLER_0_10_133
*460 FILLER_0_10_139
*461 FILLER_0_10_141
*462 FILLER_0_10_15
*463 FILLER_0_10_153
*464 FILLER_0_10_165
*465 FILLER_0_10_177
*466 FILLER_0_10_189
*467 FILLER_0_10_195
*468 FILLER_0_10_197
*469 FILLER_0_10_209
*470 FILLER_0_10_221
*471 FILLER_0_10_233
*472 FILLER_0_10_245
*473 FILLER_0_10_251
*474 FILLER_0_10_253
*475 FILLER_0_10_265
*476 FILLER_0_10_27
*477 FILLER_0_10_277
*478 FILLER_0_10_289
*479 FILLER_0_10_29
*480 FILLER_0_10_3
*481 FILLER_0_10_301
*482 FILLER_0_10_307
*483 FILLER_0_10_309
*484 FILLER_0_10_321
*485 FILLER_0_10_333
*486 FILLER_0_10_41
*487 FILLER_0_10_53
*488 FILLER_0_10_65
*489 FILLER_0_10_77
*490 FILLER_0_10_83
*491 FILLER_0_10_85
*492 FILLER_0_10_97
*493 FILLER_0_11_105
*494 FILLER_0_11_111
*495 FILLER_0_11_113
*496 FILLER_0_11_125
*497 FILLER_0_11_137
*498 FILLER_0_11_149
*499 FILLER_0_11_15
*500 FILLER_0_11_161
*501 FILLER_0_11_167
*502 FILLER_0_11_169
*503 FILLER_0_11_181
*504 FILLER_0_11_193
*505 FILLER_0_11_205
*506 FILLER_0_11_217
*507 FILLER_0_11_223
*508 FILLER_0_11_225
*509 FILLER_0_11_237
*510 FILLER_0_11_249
*511 FILLER_0_11_261
*512 FILLER_0_11_27
*513 FILLER_0_11_273
*514 FILLER_0_11_279
*515 FILLER_0_11_281
*516 FILLER_0_11_293
*517 FILLER_0_11_3
*518 FILLER_0_11_305
*519 FILLER_0_11_317
*520 FILLER_0_11_329
*521 FILLER_0_11_39
*522 FILLER_0_11_51
*523 FILLER_0_11_55
*524 FILLER_0_11_57
*525 FILLER_0_11_69
*526 FILLER_0_11_81
*527 FILLER_0_11_93
*528 FILLER_0_12_109
*529 FILLER_0_12_121
*530 FILLER_0_12_133
*531 FILLER_0_12_139
*532 FILLER_0_12_141
*533 FILLER_0_12_15
*534 FILLER_0_12_153
*535 FILLER_0_12_165
*536 FILLER_0_12_177
*537 FILLER_0_12_189
*538 FILLER_0_12_195
*539 FILLER_0_12_197
*540 FILLER_0_12_209
*541 FILLER_0_12_221
*542 FILLER_0_12_233
*543 FILLER_0_12_245
*544 FILLER_0_12_251
*545 FILLER_0_12_253
*546 FILLER_0_12_265
*547 FILLER_0_12_27
*548 FILLER_0_12_277
*549 FILLER_0_12_289
*550 FILLER_0_12_29
*551 FILLER_0_12_3
*552 FILLER_0_12_301
*553 FILLER_0_12_307
*554 FILLER_0_12_309
*555 FILLER_0_12_321
*556 FILLER_0_12_333
*557 FILLER_0_12_41
*558 FILLER_0_12_53
*559 FILLER_0_12_65
*560 FILLER_0_12_77
*561 FILLER_0_12_83
*562 FILLER_0_12_85
*563 FILLER_0_12_97
*564 FILLER_0_13_105
*565 FILLER_0_13_111
*566 FILLER_0_13_113
*567 FILLER_0_13_125
*568 FILLER_0_13_137
*569 FILLER_0_13_149
*570 FILLER_0_13_15
*571 FILLER_0_13_161
*572 FILLER_0_13_167
*573 FILLER_0_13_169
*574 FILLER_0_13_181
*575 FILLER_0_13_193
*576 FILLER_0_13_205
*577 FILLER_0_13_217
*578 FILLER_0_13_223
*579 FILLER_0_13_241
*580 FILLER_0_13_253
*581 FILLER_0_13_265
*582 FILLER_0_13_27
*583 FILLER_0_13_277
*584 FILLER_0_13_281
*585 FILLER_0_13_293
*586 FILLER_0_13_3
*587 FILLER_0_13_305
*588 FILLER_0_13_317
*589 FILLER_0_13_329
*590 FILLER_0_13_39
*591 FILLER_0_13_51
*592 FILLER_0_13_55
*593 FILLER_0_13_57
*594 FILLER_0_13_69
*595 FILLER_0_13_81
*596 FILLER_0_13_93
*597 FILLER_0_14_109
*598 FILLER_0_14_121
*599 FILLER_0_14_133
*600 FILLER_0_14_139
*601 FILLER_0_14_141
*602 FILLER_0_14_15
*603 FILLER_0_14_153
*604 FILLER_0_14_165
*605 FILLER_0_14_177
*606 FILLER_0_14_189
*607 FILLER_0_14_195
*608 FILLER_0_14_197
*609 FILLER_0_14_209
*610 FILLER_0_14_217
*611 FILLER_0_14_237
*612 FILLER_0_14_249
*613 FILLER_0_14_253
*614 FILLER_0_14_257
*615 FILLER_0_14_27
*616 FILLER_0_14_277
*617 FILLER_0_14_289
*618 FILLER_0_14_29
*619 FILLER_0_14_3
*620 FILLER_0_14_301
*621 FILLER_0_14_307
*622 FILLER_0_14_309
*623 FILLER_0_14_321
*624 FILLER_0_14_333
*625 FILLER_0_14_41
*626 FILLER_0_14_53
*627 FILLER_0_14_65
*628 FILLER_0_14_77
*629 FILLER_0_14_83
*630 FILLER_0_14_85
*631 FILLER_0_14_97
*632 FILLER_0_15_105
*633 FILLER_0_15_111
*634 FILLER_0_15_113
*635 FILLER_0_15_125
*636 FILLER_0_15_137
*637 FILLER_0_15_149
*638 FILLER_0_15_15
*639 FILLER_0_15_161
*640 FILLER_0_15_167
*641 FILLER_0_15_169
*642 FILLER_0_15_181
*643 FILLER_0_15_193
*644 FILLER_0_15_205
*645 FILLER_0_15_217
*646 FILLER_0_15_225
*647 FILLER_0_15_245
*648 FILLER_0_15_27
*649 FILLER_0_15_281
*650 FILLER_0_15_293
*651 FILLER_0_15_3
*652 FILLER_0_15_305
*653 FILLER_0_15_317
*654 FILLER_0_15_329
*655 FILLER_0_15_39
*656 FILLER_0_15_51
*657 FILLER_0_15_55
*658 FILLER_0_15_57
*659 FILLER_0_15_69
*660 FILLER_0_15_81
*661 FILLER_0_15_93
*662 FILLER_0_16_109
*663 FILLER_0_16_121
*664 FILLER_0_16_133
*665 FILLER_0_16_139
*666 FILLER_0_16_141
*667 FILLER_0_16_15
*668 FILLER_0_16_153
*669 FILLER_0_16_165
*670 FILLER_0_16_177
*671 FILLER_0_16_189
*672 FILLER_0_16_195
*673 FILLER_0_16_197
*674 FILLER_0_16_209
*675 FILLER_0_16_221
*676 FILLER_0_16_232
*677 FILLER_0_16_242
*678 FILLER_0_16_250
*679 FILLER_0_16_253
*680 FILLER_0_16_27
*681 FILLER_0_16_29
*682 FILLER_0_16_291
*683 FILLER_0_16_3
*684 FILLER_0_16_303
*685 FILLER_0_16_307
*686 FILLER_0_16_309
*687 FILLER_0_16_321
*688 FILLER_0_16_333
*689 FILLER_0_16_41
*690 FILLER_0_16_53
*691 FILLER_0_16_65
*692 FILLER_0_16_77
*693 FILLER_0_16_83
*694 FILLER_0_16_85
*695 FILLER_0_16_97
*696 FILLER_0_17_105
*697 FILLER_0_17_111
*698 FILLER_0_17_113
*699 FILLER_0_17_125
*700 FILLER_0_17_137
*701 FILLER_0_17_149
*702 FILLER_0_17_15
*703 FILLER_0_17_161
*704 FILLER_0_17_167
*705 FILLER_0_17_169
*706 FILLER_0_17_181
*707 FILLER_0_17_193
*708 FILLER_0_17_205
*709 FILLER_0_17_225
*710 FILLER_0_17_242
*711 FILLER_0_17_254
*712 FILLER_0_17_262
*713 FILLER_0_17_27
*714 FILLER_0_17_279
*715 FILLER_0_17_297
*716 FILLER_0_17_3
*717 FILLER_0_17_309
*718 FILLER_0_17_321
*719 FILLER_0_17_333
*720 FILLER_0_17_39
*721 FILLER_0_17_51
*722 FILLER_0_17_55
*723 FILLER_0_17_57
*724 FILLER_0_17_69
*725 FILLER_0_17_81
*726 FILLER_0_17_93
*727 FILLER_0_18_109
*728 FILLER_0_18_121
*729 FILLER_0_18_133
*730 FILLER_0_18_139
*731 FILLER_0_18_141
*732 FILLER_0_18_15
*733 FILLER_0_18_153
*734 FILLER_0_18_165
*735 FILLER_0_18_177
*736 FILLER_0_18_189
*737 FILLER_0_18_195
*738 FILLER_0_18_197
*739 FILLER_0_18_238
*740 FILLER_0_18_253
*741 FILLER_0_18_265
*742 FILLER_0_18_269
*743 FILLER_0_18_27
*744 FILLER_0_18_285
*745 FILLER_0_18_29
*746 FILLER_0_18_297
*747 FILLER_0_18_3
*748 FILLER_0_18_305
*749 FILLER_0_18_309
*750 FILLER_0_18_321
*751 FILLER_0_18_333
*752 FILLER_0_18_41
*753 FILLER_0_18_53
*754 FILLER_0_18_65
*755 FILLER_0_18_77
*756 FILLER_0_18_83
*757 FILLER_0_18_85
*758 FILLER_0_18_97
*759 FILLER_0_19_105
*760 FILLER_0_19_111
*761 FILLER_0_19_113
*762 FILLER_0_19_125
*763 FILLER_0_19_137
*764 FILLER_0_19_149
*765 FILLER_0_19_15
*766 FILLER_0_19_157
*767 FILLER_0_19_163
*768 FILLER_0_19_167
*769 FILLER_0_19_169
*770 FILLER_0_19_187
*771 FILLER_0_19_199
*772 FILLER_0_19_211
*773 FILLER_0_19_241
*774 FILLER_0_19_264
*775 FILLER_0_19_27
*776 FILLER_0_19_276
*777 FILLER_0_19_281
*778 FILLER_0_19_293
*779 FILLER_0_19_3
*780 FILLER_0_19_305
*781 FILLER_0_19_317
*782 FILLER_0_19_329
*783 FILLER_0_19_39
*784 FILLER_0_19_51
*785 FILLER_0_19_55
*786 FILLER_0_19_57
*787 FILLER_0_19_69
*788 FILLER_0_19_81
*789 FILLER_0_19_93
*790 FILLER_0_1_105
*791 FILLER_0_1_111
*792 FILLER_0_1_113
*793 FILLER_0_1_125
*794 FILLER_0_1_137
*795 FILLER_0_1_149
*796 FILLER_0_1_15
*797 FILLER_0_1_161
*798 FILLER_0_1_167
*799 FILLER_0_1_169
*800 FILLER_0_1_181
*801 FILLER_0_1_193
*802 FILLER_0_1_205
*803 FILLER_0_1_217
*804 FILLER_0_1_223
*805 FILLER_0_1_225
*806 FILLER_0_1_237
*807 FILLER_0_1_249
*808 FILLER_0_1_261
*809 FILLER_0_1_27
*810 FILLER_0_1_273
*811 FILLER_0_1_279
*812 FILLER_0_1_281
*813 FILLER_0_1_293
*814 FILLER_0_1_3
*815 FILLER_0_1_305
*816 FILLER_0_1_317
*817 FILLER_0_1_329
*818 FILLER_0_1_39
*819 FILLER_0_1_51
*820 FILLER_0_1_55
*821 FILLER_0_1_57
*822 FILLER_0_1_69
*823 FILLER_0_1_81
*824 FILLER_0_1_93
*825 FILLER_0_20_109
*826 FILLER_0_20_121
*827 FILLER_0_20_133
*828 FILLER_0_20_139
*829 FILLER_0_20_141
*830 FILLER_0_20_15
*831 FILLER_0_20_153
*832 FILLER_0_20_162
*833 FILLER_0_20_169
*834 FILLER_0_20_195
*835 FILLER_0_20_200
*836 FILLER_0_20_212
*837 FILLER_0_20_224
*838 FILLER_0_20_229
*839 FILLER_0_20_253
*840 FILLER_0_20_265
*841 FILLER_0_20_27
*842 FILLER_0_20_273
*843 FILLER_0_20_280
*844 FILLER_0_20_284
*845 FILLER_0_20_29
*846 FILLER_0_20_3
*847 FILLER_0_20_304
*848 FILLER_0_20_309
*849 FILLER_0_20_313
*850 FILLER_0_20_325
*851 FILLER_0_20_333
*852 FILLER_0_20_41
*853 FILLER_0_20_53
*854 FILLER_0_20_65
*855 FILLER_0_20_77
*856 FILLER_0_20_83
*857 FILLER_0_20_85
*858 FILLER_0_20_97
*859 FILLER_0_21_105
*860 FILLER_0_21_111
*861 FILLER_0_21_113
*862 FILLER_0_21_125
*863 FILLER_0_21_137
*864 FILLER_0_21_143
*865 FILLER_0_21_15
*866 FILLER_0_21_166
*867 FILLER_0_21_169
*868 FILLER_0_21_176
*869 FILLER_0_21_192
*870 FILLER_0_21_214
*871 FILLER_0_21_222
*872 FILLER_0_21_225
*873 FILLER_0_21_233
*874 FILLER_0_21_254
*875 FILLER_0_21_262
*876 FILLER_0_21_27
*877 FILLER_0_21_3
*878 FILLER_0_21_311
*879 FILLER_0_21_328
*880 FILLER_0_21_334
*881 FILLER_0_21_39
*882 FILLER_0_21_51
*883 FILLER_0_21_55
*884 FILLER_0_21_57
*885 FILLER_0_21_69
*886 FILLER_0_21_81
*887 FILLER_0_21_93
*888 FILLER_0_22_109
*889 FILLER_0_22_121
*890 FILLER_0_22_133
*891 FILLER_0_22_139
*892 FILLER_0_22_141
*893 FILLER_0_22_15
*894 FILLER_0_22_171
*895 FILLER_0_22_184
*896 FILLER_0_22_221
*897 FILLER_0_22_233
*898 FILLER_0_22_249
*899 FILLER_0_22_259
*900 FILLER_0_22_27
*901 FILLER_0_22_271
*902 FILLER_0_22_279
*903 FILLER_0_22_29
*904 FILLER_0_22_3
*905 FILLER_0_22_321
*906 FILLER_0_22_333
*907 FILLER_0_22_41
*908 FILLER_0_22_53
*909 FILLER_0_22_65
*910 FILLER_0_22_77
*911 FILLER_0_22_83
*912 FILLER_0_22_85
*913 FILLER_0_22_97
*914 FILLER_0_23_105
*915 FILLER_0_23_111
*916 FILLER_0_23_113
*917 FILLER_0_23_125
*918 FILLER_0_23_137
*919 FILLER_0_23_149
*920 FILLER_0_23_15
*921 FILLER_0_23_161
*922 FILLER_0_23_167
*923 FILLER_0_23_169
*924 FILLER_0_23_181
*925 FILLER_0_23_188
*926 FILLER_0_23_192
*927 FILLER_0_23_196
*928 FILLER_0_23_220
*929 FILLER_0_23_233
*930 FILLER_0_23_239
*931 FILLER_0_23_27
*932 FILLER_0_23_274
*933 FILLER_0_23_281
*934 FILLER_0_23_299
*935 FILLER_0_23_3
*936 FILLER_0_23_312
*937 FILLER_0_23_328
*938 FILLER_0_23_334
*939 FILLER_0_23_39
*940 FILLER_0_23_51
*941 FILLER_0_23_55
*942 FILLER_0_23_57
*943 FILLER_0_23_69
*944 FILLER_0_23_81
*945 FILLER_0_23_93
*946 FILLER_0_24_109
*947 FILLER_0_24_121
*948 FILLER_0_24_133
*949 FILLER_0_24_139
*950 FILLER_0_24_141
*951 FILLER_0_24_149
*952 FILLER_0_24_15
*953 FILLER_0_24_180
*954 FILLER_0_24_192
*955 FILLER_0_24_231
*956 FILLER_0_24_250
*957 FILLER_0_24_253
*958 FILLER_0_24_269
*959 FILLER_0_24_27
*960 FILLER_0_24_284
*961 FILLER_0_24_29
*962 FILLER_0_24_298
*963 FILLER_0_24_3
*964 FILLER_0_24_309
*965 FILLER_0_24_326
*966 FILLER_0_24_334
*967 FILLER_0_24_41
*968 FILLER_0_24_53
*969 FILLER_0_24_65
*970 FILLER_0_24_77
*971 FILLER_0_24_83
*972 FILLER_0_24_85
*973 FILLER_0_24_97
*974 FILLER_0_25_105
*975 FILLER_0_25_111
*976 FILLER_0_25_113
*977 FILLER_0_25_130
*978 FILLER_0_25_142
*979 FILLER_0_25_15
*980 FILLER_0_25_165
*981 FILLER_0_25_185
*982 FILLER_0_25_197
*983 FILLER_0_25_201
*984 FILLER_0_25_210
*985 FILLER_0_25_222
*986 FILLER_0_25_225
*987 FILLER_0_25_250
*988 FILLER_0_25_27
*989 FILLER_0_25_277
*990 FILLER_0_25_297
*991 FILLER_0_25_3
*992 FILLER_0_25_329
*993 FILLER_0_25_39
*994 FILLER_0_25_51
*995 FILLER_0_25_55
*996 FILLER_0_25_57
*997 FILLER_0_25_69
*998 FILLER_0_25_81
*999 FILLER_0_25_93
*1000 FILLER_0_26_109
*1001 FILLER_0_26_137
*1002 FILLER_0_26_141
*1003 FILLER_0_26_15
*1004 FILLER_0_26_186
*1005 FILLER_0_26_201
*1006 FILLER_0_26_213
*1007 FILLER_0_26_225
*1008 FILLER_0_26_231
*1009 FILLER_0_26_27
*1010 FILLER_0_26_270
*1011 FILLER_0_26_279
*1012 FILLER_0_26_29
*1013 FILLER_0_26_291
*1014 FILLER_0_26_297
*1015 FILLER_0_26_3
*1016 FILLER_0_26_302
*1017 FILLER_0_26_309
*1018 FILLER_0_26_41
*1019 FILLER_0_26_53
*1020 FILLER_0_26_65
*1021 FILLER_0_26_77
*1022 FILLER_0_26_83
*1023 FILLER_0_26_85
*1024 FILLER_0_26_97
*1025 FILLER_0_27_105
*1026 FILLER_0_27_111
*1027 FILLER_0_27_129
*1028 FILLER_0_27_15
*1029 FILLER_0_27_159
*1030 FILLER_0_27_185
*1031 FILLER_0_27_215
*1032 FILLER_0_27_223
*1033 FILLER_0_27_27
*1034 FILLER_0_27_271
*1035 FILLER_0_27_279
*1036 FILLER_0_27_284
*1037 FILLER_0_27_294
*1038 FILLER_0_27_3
*1039 FILLER_0_27_306
*1040 FILLER_0_27_310
*1041 FILLER_0_27_324
*1042 FILLER_0_27_332
*1043 FILLER_0_27_39
*1044 FILLER_0_27_51
*1045 FILLER_0_27_55
*1046 FILLER_0_27_57
*1047 FILLER_0_27_69
*1048 FILLER_0_27_81
*1049 FILLER_0_27_93
*1050 FILLER_0_28_105
*1051 FILLER_0_28_124
*1052 FILLER_0_28_15
*1053 FILLER_0_28_153
*1054 FILLER_0_28_162
*1055 FILLER_0_28_167
*1056 FILLER_0_28_186
*1057 FILLER_0_28_194
*1058 FILLER_0_28_213
*1059 FILLER_0_28_251
*1060 FILLER_0_28_27
*1061 FILLER_0_28_277
*1062 FILLER_0_28_281
*1063 FILLER_0_28_29
*1064 FILLER_0_28_3
*1065 FILLER_0_28_301
*1066 FILLER_0_28_307
*1067 FILLER_0_28_309
*1068 FILLER_0_28_329
*1069 FILLER_0_28_41
*1070 FILLER_0_28_53
*1071 FILLER_0_28_65
*1072 FILLER_0_28_77
*1073 FILLER_0_28_83
*1074 FILLER_0_28_85
*1075 FILLER_0_28_97
*1076 FILLER_0_29_105
*1077 FILLER_0_29_113
*1078 FILLER_0_29_131
*1079 FILLER_0_29_15
*1080 FILLER_0_29_154
*1081 FILLER_0_29_166
*1082 FILLER_0_29_190
*1083 FILLER_0_29_199
*1084 FILLER_0_29_223
*1085 FILLER_0_29_261
*1086 FILLER_0_29_27
*1087 FILLER_0_29_272
*1088 FILLER_0_29_295
*1089 FILLER_0_29_3
*1090 FILLER_0_29_334
*1091 FILLER_0_29_39
*1092 FILLER_0_29_51
*1093 FILLER_0_29_55
*1094 FILLER_0_29_57
*1095 FILLER_0_29_69
*1096 FILLER_0_29_81
*1097 FILLER_0_29_93
*1098 FILLER_0_2_109
*1099 FILLER_0_2_121
*1100 FILLER_0_2_133
*1101 FILLER_0_2_139
*1102 FILLER_0_2_141
*1103 FILLER_0_2_15
*1104 FILLER_0_2_153
*1105 FILLER_0_2_165
*1106 FILLER_0_2_177
*1107 FILLER_0_2_189
*1108 FILLER_0_2_195
*1109 FILLER_0_2_197
*1110 FILLER_0_2_209
*1111 FILLER_0_2_221
*1112 FILLER_0_2_233
*1113 FILLER_0_2_245
*1114 FILLER_0_2_251
*1115 FILLER_0_2_253
*1116 FILLER_0_2_265
*1117 FILLER_0_2_27
*1118 FILLER_0_2_277
*1119 FILLER_0_2_289
*1120 FILLER_0_2_29
*1121 FILLER_0_2_3
*1122 FILLER_0_2_301
*1123 FILLER_0_2_307
*1124 FILLER_0_2_309
*1125 FILLER_0_2_321
*1126 FILLER_0_2_333
*1127 FILLER_0_2_41
*1128 FILLER_0_2_53
*1129 FILLER_0_2_65
*1130 FILLER_0_2_77
*1131 FILLER_0_2_83
*1132 FILLER_0_2_85
*1133 FILLER_0_2_97
*1134 FILLER_0_30_105
*1135 FILLER_0_30_112
*1136 FILLER_0_30_121
*1137 FILLER_0_30_129
*1138 FILLER_0_30_148
*1139 FILLER_0_30_15
*1140 FILLER_0_30_158
*1141 FILLER_0_30_170
*1142 FILLER_0_30_181
*1143 FILLER_0_30_193
*1144 FILLER_0_30_197
*1145 FILLER_0_30_205
*1146 FILLER_0_30_210
*1147 FILLER_0_30_222
*1148 FILLER_0_30_237
*1149 FILLER_0_30_245
*1150 FILLER_0_30_250
*1151 FILLER_0_30_259
*1152 FILLER_0_30_263
*1153 FILLER_0_30_27
*1154 FILLER_0_30_280
*1155 FILLER_0_30_29
*1156 FILLER_0_30_3
*1157 FILLER_0_30_305
*1158 FILLER_0_30_309
*1159 FILLER_0_30_330
*1160 FILLER_0_30_334
*1161 FILLER_0_30_41
*1162 FILLER_0_30_53
*1163 FILLER_0_30_65
*1164 FILLER_0_30_77
*1165 FILLER_0_30_83
*1166 FILLER_0_30_85
*1167 FILLER_0_30_97
*1168 FILLER_0_31_101
*1169 FILLER_0_31_143
*1170 FILLER_0_31_15
*1171 FILLER_0_31_165
*1172 FILLER_0_31_177
*1173 FILLER_0_31_189
*1174 FILLER_0_31_193
*1175 FILLER_0_31_210
*1176 FILLER_0_31_222
*1177 FILLER_0_31_225
*1178 FILLER_0_31_229
*1179 FILLER_0_31_246
*1180 FILLER_0_31_258
*1181 FILLER_0_31_266
*1182 FILLER_0_31_27
*1183 FILLER_0_31_272
*1184 FILLER_0_31_281
*1185 FILLER_0_31_298
*1186 FILLER_0_31_3
*1187 FILLER_0_31_306
*1188 FILLER_0_31_325
*1189 FILLER_0_31_333
*1190 FILLER_0_31_39
*1191 FILLER_0_31_51
*1192 FILLER_0_31_55
*1193 FILLER_0_31_57
*1194 FILLER_0_31_69
*1195 FILLER_0_31_81
*1196 FILLER_0_31_93
*1197 FILLER_0_32_137
*1198 FILLER_0_32_141
*1199 FILLER_0_32_15
*1200 FILLER_0_32_161
*1201 FILLER_0_32_181
*1202 FILLER_0_32_189
*1203 FILLER_0_32_216
*1204 FILLER_0_32_247
*1205 FILLER_0_32_251
*1206 FILLER_0_32_253
*1207 FILLER_0_32_264
*1208 FILLER_0_32_27
*1209 FILLER_0_32_270
*1210 FILLER_0_32_282
*1211 FILLER_0_32_29
*1212 FILLER_0_32_294
*1213 FILLER_0_32_3
*1214 FILLER_0_32_309
*1215 FILLER_0_32_326
*1216 FILLER_0_32_334
*1217 FILLER_0_32_41
*1218 FILLER_0_32_53
*1219 FILLER_0_32_65
*1220 FILLER_0_32_77
*1221 FILLER_0_32_83
*1222 FILLER_0_32_85
*1223 FILLER_0_33_105
*1224 FILLER_0_33_111
*1225 FILLER_0_33_113
*1226 FILLER_0_33_121
*1227 FILLER_0_33_15
*1228 FILLER_0_33_166
*1229 FILLER_0_33_177
*1230 FILLER_0_33_188
*1231 FILLER_0_33_194
*1232 FILLER_0_33_201
*1233 FILLER_0_33_211
*1234 FILLER_0_33_223
*1235 FILLER_0_33_225
*1236 FILLER_0_33_232
*1237 FILLER_0_33_248
*1238 FILLER_0_33_255
*1239 FILLER_0_33_27
*1240 FILLER_0_33_272
*1241 FILLER_0_33_297
*1242 FILLER_0_33_3
*1243 FILLER_0_33_301
*1244 FILLER_0_33_326
*1245 FILLER_0_33_334
*1246 FILLER_0_33_39
*1247 FILLER_0_33_51
*1248 FILLER_0_33_55
*1249 FILLER_0_33_57
*1250 FILLER_0_33_69
*1251 FILLER_0_33_81
*1252 FILLER_0_33_93
*1253 FILLER_0_34_109
*1254 FILLER_0_34_121
*1255 FILLER_0_34_149
*1256 FILLER_0_34_15
*1257 FILLER_0_34_155
*1258 FILLER_0_34_181
*1259 FILLER_0_34_189
*1260 FILLER_0_34_208
*1261 FILLER_0_34_220
*1262 FILLER_0_34_228
*1263 FILLER_0_34_245
*1264 FILLER_0_34_251
*1265 FILLER_0_34_253
*1266 FILLER_0_34_261
*1267 FILLER_0_34_27
*1268 FILLER_0_34_29
*1269 FILLER_0_34_3
*1270 FILLER_0_34_300
*1271 FILLER_0_34_334
*1272 FILLER_0_34_41
*1273 FILLER_0_34_53
*1274 FILLER_0_34_65
*1275 FILLER_0_34_77
*1276 FILLER_0_34_83
*1277 FILLER_0_34_85
*1278 FILLER_0_34_97
*1279 FILLER_0_35_105
*1280 FILLER_0_35_111
*1281 FILLER_0_35_113
*1282 FILLER_0_35_132
*1283 FILLER_0_35_145
*1284 FILLER_0_35_15
*1285 FILLER_0_35_153
*1286 FILLER_0_35_166
*1287 FILLER_0_35_172
*1288 FILLER_0_35_184
*1289 FILLER_0_35_188
*1290 FILLER_0_35_208
*1291 FILLER_0_35_220
*1292 FILLER_0_35_228
*1293 FILLER_0_35_232
*1294 FILLER_0_35_246
*1295 FILLER_0_35_262
*1296 FILLER_0_35_27
*1297 FILLER_0_35_270
*1298 FILLER_0_35_285
*1299 FILLER_0_35_291
*1300 FILLER_0_35_3
*1301 FILLER_0_35_323
*1302 FILLER_0_35_39
*1303 FILLER_0_35_51
*1304 FILLER_0_35_55
*1305 FILLER_0_35_57
*1306 FILLER_0_35_69
*1307 FILLER_0_35_81
*1308 FILLER_0_35_93
*1309 FILLER_0_36_109
*1310 FILLER_0_36_141
*1311 FILLER_0_36_15
*1312 FILLER_0_36_150
*1313 FILLER_0_36_179
*1314 FILLER_0_36_191
*1315 FILLER_0_36_195
*1316 FILLER_0_36_234
*1317 FILLER_0_36_251
*1318 FILLER_0_36_256
*1319 FILLER_0_36_268
*1320 FILLER_0_36_27
*1321 FILLER_0_36_286
*1322 FILLER_0_36_29
*1323 FILLER_0_36_298
*1324 FILLER_0_36_3
*1325 FILLER_0_36_306
*1326 FILLER_0_36_309
*1327 FILLER_0_36_313
*1328 FILLER_0_36_334
*1329 FILLER_0_36_41
*1330 FILLER_0_36_53
*1331 FILLER_0_36_65
*1332 FILLER_0_36_77
*1333 FILLER_0_36_83
*1334 FILLER_0_36_85
*1335 FILLER_0_36_97
*1336 FILLER_0_37_105
*1337 FILLER_0_37_111
*1338 FILLER_0_37_113
*1339 FILLER_0_37_121
*1340 FILLER_0_37_127
*1341 FILLER_0_37_145
*1342 FILLER_0_37_15
*1343 FILLER_0_37_186
*1344 FILLER_0_37_190
*1345 FILLER_0_37_198
*1346 FILLER_0_37_221
*1347 FILLER_0_37_247
*1348 FILLER_0_37_269
*1349 FILLER_0_37_27
*1350 FILLER_0_37_277
*1351 FILLER_0_37_297
*1352 FILLER_0_37_3
*1353 FILLER_0_37_334
*1354 FILLER_0_37_39
*1355 FILLER_0_37_51
*1356 FILLER_0_37_55
*1357 FILLER_0_37_57
*1358 FILLER_0_37_69
*1359 FILLER_0_37_81
*1360 FILLER_0_37_93
*1361 FILLER_0_38_10
*1362 FILLER_0_38_102
*1363 FILLER_0_38_106
*1364 FILLER_0_38_110
*1365 FILLER_0_38_113
*1366 FILLER_0_38_137
*1367 FILLER_0_38_14
*1368 FILLER_0_38_141
*1369 FILLER_0_38_149
*1370 FILLER_0_38_167
*1371 FILLER_0_38_169
*1372 FILLER_0_38_18
*1373 FILLER_0_38_181
*1374 FILLER_0_38_193
*1375 FILLER_0_38_200
*1376 FILLER_0_38_206
*1377 FILLER_0_38_216
*1378 FILLER_0_38_22
*1379 FILLER_0_38_222
*1380 FILLER_0_38_225
*1381 FILLER_0_38_230
*1382 FILLER_0_38_234
*1383 FILLER_0_38_241
*1384 FILLER_0_38_246
*1385 FILLER_0_38_256
*1386 FILLER_0_38_262
*1387 FILLER_0_38_266
*1388 FILLER_0_38_270
*1389 FILLER_0_38_274
*1390 FILLER_0_38_278
*1391 FILLER_0_38_306
*1392 FILLER_0_38_32
*1393 FILLER_0_38_38
*1394 FILLER_0_38_42
*1395 FILLER_0_38_46
*1396 FILLER_0_38_50
*1397 FILLER_0_38_54
*1398 FILLER_0_38_57
*1399 FILLER_0_38_6
*1400 FILLER_0_38_62
*1401 FILLER_0_38_66
*1402 FILLER_0_38_70
*1403 FILLER_0_38_74
*1404 FILLER_0_38_78
*1405 FILLER_0_38_88
*1406 FILLER_0_38_94
*1407 FILLER_0_38_98
*1408 FILLER_0_3_105
*1409 FILLER_0_3_111
*1410 FILLER_0_3_113
*1411 FILLER_0_3_125
*1412 FILLER_0_3_137
*1413 FILLER_0_3_149
*1414 FILLER_0_3_15
*1415 FILLER_0_3_161
*1416 FILLER_0_3_167
*1417 FILLER_0_3_169
*1418 FILLER_0_3_181
*1419 FILLER_0_3_193
*1420 FILLER_0_3_205
*1421 FILLER_0_3_217
*1422 FILLER_0_3_223
*1423 FILLER_0_3_225
*1424 FILLER_0_3_237
*1425 FILLER_0_3_249
*1426 FILLER_0_3_261
*1427 FILLER_0_3_27
*1428 FILLER_0_3_273
*1429 FILLER_0_3_279
*1430 FILLER_0_3_281
*1431 FILLER_0_3_293
*1432 FILLER_0_3_3
*1433 FILLER_0_3_305
*1434 FILLER_0_3_317
*1435 FILLER_0_3_329
*1436 FILLER_0_3_39
*1437 FILLER_0_3_51
*1438 FILLER_0_3_55
*1439 FILLER_0_3_57
*1440 FILLER_0_3_69
*1441 FILLER_0_3_81
*1442 FILLER_0_3_93
*1443 FILLER_0_4_109
*1444 FILLER_0_4_121
*1445 FILLER_0_4_133
*1446 FILLER_0_4_139
*1447 FILLER_0_4_141
*1448 FILLER_0_4_15
*1449 FILLER_0_4_153
*1450 FILLER_0_4_165
*1451 FILLER_0_4_177
*1452 FILLER_0_4_189
*1453 FILLER_0_4_195
*1454 FILLER_0_4_197
*1455 FILLER_0_4_209
*1456 FILLER_0_4_221
*1457 FILLER_0_4_233
*1458 FILLER_0_4_245
*1459 FILLER_0_4_251
*1460 FILLER_0_4_253
*1461 FILLER_0_4_265
*1462 FILLER_0_4_27
*1463 FILLER_0_4_277
*1464 FILLER_0_4_289
*1465 FILLER_0_4_29
*1466 FILLER_0_4_3
*1467 FILLER_0_4_301
*1468 FILLER_0_4_307
*1469 FILLER_0_4_309
*1470 FILLER_0_4_321
*1471 FILLER_0_4_333
*1472 FILLER_0_4_41
*1473 FILLER_0_4_53
*1474 FILLER_0_4_65
*1475 FILLER_0_4_77
*1476 FILLER_0_4_83
*1477 FILLER_0_4_85
*1478 FILLER_0_4_97
*1479 FILLER_0_5_105
*1480 FILLER_0_5_111
*1481 FILLER_0_5_113
*1482 FILLER_0_5_125
*1483 FILLER_0_5_137
*1484 FILLER_0_5_149
*1485 FILLER_0_5_15
*1486 FILLER_0_5_161
*1487 FILLER_0_5_167
*1488 FILLER_0_5_169
*1489 FILLER_0_5_181
*1490 FILLER_0_5_193
*1491 FILLER_0_5_205
*1492 FILLER_0_5_217
*1493 FILLER_0_5_223
*1494 FILLER_0_5_225
*1495 FILLER_0_5_237
*1496 FILLER_0_5_249
*1497 FILLER_0_5_261
*1498 FILLER_0_5_27
*1499 FILLER_0_5_273
*1500 FILLER_0_5_279
*1501 FILLER_0_5_281
*1502 FILLER_0_5_293
*1503 FILLER_0_5_3
*1504 FILLER_0_5_305
*1505 FILLER_0_5_317
*1506 FILLER_0_5_329
*1507 FILLER_0_5_39
*1508 FILLER_0_5_51
*1509 FILLER_0_5_55
*1510 FILLER_0_5_57
*1511 FILLER_0_5_69
*1512 FILLER_0_5_81
*1513 FILLER_0_5_93
*1514 FILLER_0_6_109
*1515 FILLER_0_6_121
*1516 FILLER_0_6_133
*1517 FILLER_0_6_139
*1518 FILLER_0_6_141
*1519 FILLER_0_6_15
*1520 FILLER_0_6_153
*1521 FILLER_0_6_165
*1522 FILLER_0_6_177
*1523 FILLER_0_6_189
*1524 FILLER_0_6_195
*1525 FILLER_0_6_197
*1526 FILLER_0_6_209
*1527 FILLER_0_6_221
*1528 FILLER_0_6_233
*1529 FILLER_0_6_245
*1530 FILLER_0_6_251
*1531 FILLER_0_6_253
*1532 FILLER_0_6_265
*1533 FILLER_0_6_27
*1534 FILLER_0_6_277
*1535 FILLER_0_6_289
*1536 FILLER_0_6_29
*1537 FILLER_0_6_3
*1538 FILLER_0_6_301
*1539 FILLER_0_6_307
*1540 FILLER_0_6_309
*1541 FILLER_0_6_321
*1542 FILLER_0_6_333
*1543 FILLER_0_6_41
*1544 FILLER_0_6_53
*1545 FILLER_0_6_65
*1546 FILLER_0_6_77
*1547 FILLER_0_6_83
*1548 FILLER_0_6_85
*1549 FILLER_0_6_97
*1550 FILLER_0_7_105
*1551 FILLER_0_7_111
*1552 FILLER_0_7_113
*1553 FILLER_0_7_125
*1554 FILLER_0_7_137
*1555 FILLER_0_7_149
*1556 FILLER_0_7_15
*1557 FILLER_0_7_161