*SPEF "ieee 1481-1999"
*DESIGN "tt_um_SteffenReith_ASGTop"
*DATE "22:16:34 Thursday April 18, 2024"
*VENDOR "The OpenROAD Project"
*PROGRAM "OpenROAD"
*VERSION "0889970d1790a2617e69f253221b8bd7626e51dc"
*DESIGN_FLOW "NAME_SCOPE LOCAL" "PIN_CAP NONE"
*DIVIDER /
*DELIMITER :
*BUS_DELIMITER []
*T_UNIT 1 NS
*C_UNIT 1 PF
*R_UNIT 1 OHM
*L_UNIT 1 HENRY

*NAME_MAP
*3 clk
*4 ena
*5 rst_n
*6 ui_in[0]
*7 ui_in[1]
*8 ui_in[2]
*9 ui_in[3]
*10 ui_in[4]
*11 ui_in[5]
*12 ui_in[6]
*13 ui_in[7]
*14 uio_in[0]
*15 uio_in[1]
*16 uio_in[2]
*17 uio_in[3]
*18 uio_in[4]
*19 uio_in[5]
*20 uio_in[6]
*21 uio_in[7]
*22 net7
*23 net8
*24 net9
*25 net10
*26 net11
*27 net12
*28 net13
*29 net14
*30 net15
*31 net16
*32 net17
*33 net18
*34 net19
*35 net20
*36 net21
*37 net22
*38 uo_out[0]
*39 net23
*40 net24
*41 net25
*42 net26
*43 net27
*44 net28
*45 net29
*46 _0000_
*47 _0001_
*48 _0002_
*49 _0003_
*50 _0004_
*51 _0005_
*52 _0006_
*53 _0007_
*54 _0008_
*55 _0009_
*56 _0010_
*57 _0011_
*58 _0012_
*59 _0013_
*60 _0014_
*61 _0015_
*62 _0016_
*63 _0017_
*64 _0018_
*65 _0019_
*66 _0020_
*67 _0021_
*68 _0022_
*69 _0023_
*70 _0024_
*71 _0025_
*72 _0026_
*73 _0027_
*74 _0028_
*75 _0029_
*76 _0030_
*77 _0031_
*78 _0032_
*79 _0033_
*80 _0034_
*81 _0035_
*82 _0036_
*83 _0037_
*84 _0038_
*85 _0039_
*86 _0040_
*87 _0041_
*88 _0042_
*89 _0043_
*90 _0044_
*91 _0045_
*92 _0046_
*93 _0047_
*94 _0048_
*95 _0049_
*96 _0050_
*97 _0051_
*98 _0052_
*99 _0053_
*100 _0054_
*101 _0055_
*102 _0056_
*103 _0057_
*104 _0058_
*105 _0059_
*106 _0060_
*107 _0061_
*108 _0062_
*109 _0063_
*110 _0064_
*111 _0065_
*112 _0066_
*113 _0067_
*114 _0068_
*115 _0069_
*116 _0070_
*117 _0071_
*118 _0072_
*119 _0073_
*120 _0074_
*121 _0075_
*122 _0076_
*123 _0077_
*124 _0078_
*125 _0079_
*126 _0080_
*127 _0081_
*128 _0082_
*129 _0083_
*130 _0084_
*131 _0085_
*132 _0086_
*133 _0087_
*134 _0088_
*135 _0089_
*136 _0090_
*137 _0091_
*138 _0092_
*139 _0093_
*140 _0094_
*141 _0095_
*142 _0096_
*143 _0097_
*144 _0098_
*145 _0099_
*146 _0100_
*147 _0101_
*148 _0102_
*149 _0103_
*150 _0104_
*151 _0105_
*152 _0106_
*153 _0107_
*154 _0108_
*155 _0109_
*156 _0110_
*157 _0111_
*158 _0112_
*159 _0113_
*160 _0114_
*161 _0115_
*162 _0116_
*163 _0117_
*164 _0118_
*165 _0119_
*166 _0120_
*167 _0121_
*168 _0122_
*169 _0123_
*170 _0124_
*171 _0125_
*172 _0126_
*173 _0127_
*174 _0128_
*175 _0129_
*176 _0130_
*177 _0131_
*178 _0132_
*179 _0133_
*180 _0134_
*181 _0135_
*182 _0136_
*183 _0137_
*184 _0138_
*185 _0139_
*186 _0140_
*187 _0141_
*188 _0142_
*189 _0143_
*190 _0144_
*191 _0145_
*192 _0146_
*193 _0147_
*194 _0148_
*195 _0149_
*196 _0150_
*197 _0151_
*198 _0152_
*199 _0153_
*200 _0154_
*201 _0155_
*202 _0156_
*203 _0157_
*204 _0158_
*205 _0159_
*206 _0160_
*207 _0161_
*208 _0162_
*209 _0163_
*210 _0164_
*211 _0165_
*212 _0166_
*213 _0167_
*214 _0168_
*215 _0169_
*216 _0170_
*217 _0171_
*218 _0172_
*219 _0173_
*220 _0174_
*221 _0175_
*222 _0176_
*223 _0177_
*224 _0178_
*225 _0179_
*226 _0180_
*227 _0181_
*228 _0182_
*229 _0183_
*230 _0184_
*231 _0185_
*232 _0186_
*233 _0187_
*234 _0188_
*235 _0189_
*236 _0190_
*237 _0191_
*238 _0192_
*239 _0193_
*240 _0194_
*241 _0195_
*242 _0196_
*243 _0197_
*244 _0198_
*245 _0199_
*246 _0200_
*247 _0201_
*248 _0202_
*249 _0203_
*250 _0204_
*251 _0205_
*252 _0206_
*253 _0207_
*254 _0208_
*255 _0209_
*256 _0210_
*257 _0211_
*258 _0212_
*259 _0213_
*260 _0214_
*261 _0215_
*262 _0216_
*263 _0217_
*264 _0218_
*265 _0219_
*266 _0220_
*267 _0221_
*268 _0222_
*269 _0223_
*270 _0224_
*271 _0225_
*272 _0226_
*273 _0227_
*274 _0228_
*275 _0229_
*276 _0230_
*277 _0231_
*278 _0232_
*279 _0233_
*280 _0234_
*281 _0235_
*282 _0236_
*283 _0237_
*284 _0238_
*285 _0239_
*286 _0240_
*287 _0241_
*288 _0242_
*289 _0243_
*290 _0244_
*291 _0245_
*292 _0246_
*293 _0247_
*294 _0248_
*295 _0249_
*296 _0250_
*297 _0251_
*298 _0252_
*299 _0253_
*300 _0254_
*301 _0255_
*302 _0256_
*303 _0257_
*304 _0258_
*305 _0259_
*306 _0260_
*307 _0261_
*308 _0262_
*309 _0263_
*310 _0264_
*311 _0265_
*312 _0266_
*313 _0267_
*314 _0268_
*315 _0269_
*316 _0270_
*317 _0271_
*318 _0272_
*319 _0273_
*320 _0274_
*321 _0275_
*322 _0276_
*323 _0277_
*324 _0278_
*325 _0279_
*326 _0280_
*327 _0281_
*328 _0282_
*329 _0283_
*330 _0284_
*331 _0285_
*332 _0286_
*333 _0287_
*334 _0288_
*335 _0289_
*336 _0290_
*337 _0291_
*338 _0292_
*339 _0293_
*340 _0294_
*341 _0295_
*342 _0296_
*343 _0297_
*344 _0298_
*345 _0299_
*346 _0300_
*347 _0301_
*348 _0302_
*349 _0303_
*350 _0304_
*351 _0305_
*352 _0306_
*353 _0307_
*354 _0308_
*355 _0309_
*356 _0310_
*357 _0311_
*358 _0312_
*359 _0313_
*360 _0314_
*361 _0315_
*362 _0316_
*363 _0317_
*364 _0318_
*365 _0319_
*366 _0320_
*367 _0321_
*368 _0322_
*369 _0323_
*370 _0324_
*371 _0325_
*372 _0326_
*373 _0327_
*374 _0328_
*375 _0329_
*376 _0330_
*377 _0331_
*378 _0332_
*379 _0333_
*380 _0334_
*381 _0335_
*382 _0336_
*383 _0337_
*384 _0338_
*385 _0339_
*386 _0340_
*387 _0341_
*388 _0342_
*389 _0343_
*390 _0344_
*391 _0345_
*392 _0346_
*393 _0347_
*394 _0348_
*395 _0349_
*396 _0350_
*397 _0351_
*398 _0352_
*399 _0353_
*400 _0354_
*401 _0355_
*402 _0356_
*403 _0357_
*404 _0358_
*405 _0359_
*406 _0360_
*407 _0361_
*408 _0362_
*409 _0363_
*410 _0364_
*411 _0365_
*412 _0366_
*413 _0367_
*414 _0368_
*415 _0369_
*416 _0370_
*417 _0371_
*418 _0372_
*419 _0373_
*420 _0374_
*421 _0375_
*422 _0376_
*423 _0377_
*424 _0378_
*425 _0379_
*426 _0380_
*427 _0381_
*428 _0382_
*429 _0383_
*430 _0384_
*431 _0385_
*432 _0386_
*433 _0387_
*434 _0388_
*435 _0389_
*436 _0390_
*437 _0391_
*438 _0392_
*439 _0393_
*440 _0394_
*441 _0395_
*442 _0396_
*443 _0397_
*444 _0398_
*445 _0399_
*446 _0400_
*447 _0401_
*448 _0402_
*449 _0403_
*450 _0404_
*451 _0405_
*452 _0406_
*453 _0407_
*454 _0408_
*455 _0409_
*456 _0410_
*457 _0411_
*458 _0412_
*459 _0413_
*460 _0414_
*461 _0415_
*462 _0416_
*463 _0417_
*464 _0418_
*465 _0419_
*466 _0420_
*467 _0421_
*468 _0422_
*469 _0423_
*470 _0424_
*471 _0425_
*472 _0426_
*473 _0427_
*474 _0428_
*475 _0429_
*476 _0430_
*477 _0431_
*478 _0432_
*479 _0433_
*480 _0434_
*481 _0435_
*482 _0436_
*483 _0437_
*484 _0438_
*485 _0439_
*486 _0440_
*487 _0441_
*488 _0442_
*489 _0443_
*490 _0444_
*491 _0445_
*492 _0446_
*493 _0447_
*494 _0448_
*495 _0449_
*496 _0450_
*497 _0451_
*498 _0452_
*499 _0453_
*500 _0454_
*501 _0455_
*502 _0456_
*503 _0457_
*504 _0458_
*505 _0459_
*506 _0460_
*507 _0461_
*508 asg\.R1\.fsReg\[0\]
*509 asg\.R1\.fsReg\[10\]
*510 asg\.R1\.fsReg\[11\]
*511 asg\.R1\.fsReg\[12\]
*512 asg\.R1\.fsReg\[13\]
*513 asg\.R1\.fsReg\[14\]
*514 asg\.R1\.fsReg\[15\]
*515 asg\.R1\.fsReg\[16\]
*516 asg\.R1\.fsReg\[17\]
*517 asg\.R1\.fsReg\[18\]
*518 asg\.R1\.fsReg\[19\]
*519 asg\.R1\.fsReg\[1\]
*520 asg\.R1\.fsReg\[20\]
*521 asg\.R1\.fsReg\[21\]
*522 asg\.R1\.fsReg\[22\]
*523 asg\.R1\.fsReg\[23\]
*524 asg\.R1\.fsReg\[24\]
*525 asg\.R1\.fsReg\[25\]
*526 asg\.R1\.fsReg\[26\]
*527 asg\.R1\.fsReg\[27\]
*528 asg\.R1\.fsReg\[28\]
*529 asg\.R1\.fsReg\[29\]
*530 asg\.R1\.fsReg\[2\]
*531 asg\.R1\.fsReg\[30\]
*532 asg\.R1\.fsReg\[3\]
*533 asg\.R1\.fsReg\[4\]
*534 asg\.R1\.fsReg\[5\]
*535 asg\.R1\.fsReg\[6\]
*536 asg\.R1\.fsReg\[7\]
*537 asg\.R1\.fsReg\[8\]
*538 asg\.R1\.fsReg\[9\]
*539 asg\.R2\.fsReg\[0\]
*540 asg\.R2\.fsReg\[10\]
*541 asg\.R2\.fsReg\[11\]
*542 asg\.R2\.fsReg\[12\]
*543 asg\.R2\.fsReg\[13\]
*544 asg\.R2\.fsReg\[14\]
*545 asg\.R2\.fsReg\[15\]
*546 asg\.R2\.fsReg\[16\]
*547 asg\.R2\.fsReg\[17\]
*548 asg\.R2\.fsReg\[18\]
*549 asg\.R2\.fsReg\[19\]
*550 asg\.R2\.fsReg\[1\]
*551 asg\.R2\.fsReg\[20\]
*552 asg\.R2\.fsReg\[21\]
*553 asg\.R2\.fsReg\[22\]
*554 asg\.R2\.fsReg\[23\]
*555 asg\.R2\.fsReg\[24\]
*556 asg\.R2\.fsReg\[25\]
*557 asg\.R2\.fsReg\[26\]
*558 asg\.R2\.fsReg\[27\]
*559 asg\.R2\.fsReg\[28\]
*560 asg\.R2\.fsReg\[29\]
*561 asg\.R2\.fsReg\[2\]
*562 asg\.R2\.fsReg\[30\]
*563 asg\.R2\.fsReg\[31\]
*564 asg\.R2\.fsReg\[32\]
*565 asg\.R2\.fsReg\[33\]
*566 asg\.R2\.fsReg\[34\]
*567 asg\.R2\.fsReg\[35\]
*568 asg\.R2\.fsReg\[36\]
*569 asg\.R2\.fsReg\[37\]
*570 asg\.R2\.fsReg\[38\]
*571 asg\.R2\.fsReg\[39\]
*572 asg\.R2\.fsReg\[3\]
*573 asg\.R2\.fsReg\[40\]
*574 asg\.R2\.fsReg\[41\]
*575 asg\.R2\.fsReg\[42\]
*576 asg\.R2\.fsReg\[43\]
*577 asg\.R2\.fsReg\[44\]
*578 asg\.R2\.fsReg\[45\]
*579 asg\.R2\.fsReg\[46\]
*580 asg\.R2\.fsReg\[47\]
*581 asg\.R2\.fsReg\[48\]
*582 asg\.R2\.fsReg\[49\]
*583 asg\.R2\.fsReg\[4\]
*584 asg\.R2\.fsReg\[50\]
*585 asg\.R2\.fsReg\[51\]
*586 asg\.R2\.fsReg\[52\]
*587 asg\.R2\.fsReg\[53\]
*588 asg\.R2\.fsReg\[54\]
*589 asg\.R2\.fsReg\[55\]
*590 asg\.R2\.fsReg\[56\]
*591 asg\.R2\.fsReg\[57\]
*592 asg\.R2\.fsReg\[58\]
*593 asg\.R2\.fsReg\[59\]
*594 asg\.R2\.fsReg\[5\]
*595 asg\.R2\.fsReg\[60\]
*596 asg\.R2\.fsReg\[61\]
*597 asg\.R2\.fsReg\[62\]
*598 asg\.R2\.fsReg\[6\]
*599 asg\.R2\.fsReg\[7\]
*600 asg\.R2\.fsReg\[8\]
*601 asg\.R2\.fsReg\[9\]
*602 asg\.R3\.fsReg\[0\]
*603 asg\.R3\.fsReg\[10\]
*604 asg\.R3\.fsReg\[11\]
*605 asg\.R3\.fsReg\[12\]
*606 asg\.R3\.fsReg\[13\]
*607 asg\.R3\.fsReg\[14\]
*608 asg\.R3\.fsReg\[15\]
*609 asg\.R3\.fsReg\[16\]
*610 asg\.R3\.fsReg\[17\]
*611 asg\.R3\.fsReg\[18\]
*612 asg\.R3\.fsReg\[19\]
*613 asg\.R3\.fsReg\[1\]
*614 asg\.R3\.fsReg\[20\]
*615 asg\.R3\.fsReg\[21\]
*616 asg\.R3\.fsReg\[22\]
*617 asg\.R3\.fsReg\[23\]
*618 asg\.R3\.fsReg\[24\]
*619 asg\.R3\.fsReg\[25\]
*620 asg\.R3\.fsReg\[26\]
*621 asg\.R3\.fsReg\[27\]
*622 asg\.R3\.fsReg\[28\]
*623 asg\.R3\.fsReg\[29\]
*624 asg\.R3\.fsReg\[2\]
*625 asg\.R3\.fsReg\[30\]
*626 asg\.R3\.fsReg\[31\]
*627 asg\.R3\.fsReg\[32\]
*628 asg\.R3\.fsReg\[33\]
*629 asg\.R3\.fsReg\[34\]
*630 asg\.R3\.fsReg\[35\]
*631 asg\.R3\.fsReg\[36\]
*632 asg\.R3\.fsReg\[37\]
*633 asg\.R3\.fsReg\[38\]
*634 asg\.R3\.fsReg\[39\]
*635 asg\.R3\.fsReg\[3\]
*636 asg\.R3\.fsReg\[40\]
*637 asg\.R3\.fsReg\[41\]
*638 asg\.R3\.fsReg\[42\]
*639 asg\.R3\.fsReg\[43\]
*640 asg\.R3\.fsReg\[44\]
*641 asg\.R3\.fsReg\[45\]
*642 asg\.R3\.fsReg\[46\]
*643 asg\.R3\.fsReg\[47\]
*644 asg\.R3\.fsReg\[48\]
*645 asg\.R3\.fsReg\[49\]
*646 asg\.R3\.fsReg\[4\]
*647 asg\.R3\.fsReg\[50\]
*648 asg\.R3\.fsReg\[51\]
*649 asg\.R3\.fsReg\[52\]
*650 asg\.R3\.fsReg\[53\]
*651 asg\.R3\.fsReg\[54\]
*652 asg\.R3\.fsReg\[55\]
*653 asg\.R3\.fsReg\[56\]
*654 asg\.R3\.fsReg\[57\]
*655 asg\.R3\.fsReg\[58\]
*656 asg\.R3\.fsReg\[59\]
*657 asg\.R3\.fsReg\[5\]
*658 asg\.R3\.fsReg\[60\]
*659 asg\.R3\.fsReg\[61\]
*660 asg\.R3\.fsReg\[62\]
*661 asg\.R3\.fsReg\[63\]
*662 asg\.R3\.fsReg\[64\]
*663 asg\.R3\.fsReg\[65\]
*664 asg\.R3\.fsReg\[66\]
*665 asg\.R3\.fsReg\[67\]
*666 asg\.R3\.fsReg\[68\]
*667 asg\.R3\.fsReg\[69\]
*668 asg\.R3\.fsReg\[6\]
*669 asg\.R3\.fsReg\[70\]
*670 asg\.R3\.fsReg\[71\]
*671 asg\.R3\.fsReg\[72\]
*672 asg\.R3\.fsReg\[73\]
*673 asg\.R3\.fsReg\[74\]
*674 asg\.R3\.fsReg\[75\]
*675 asg\.R3\.fsReg\[76\]
*676 asg\.R3\.fsReg\[77\]
*677 asg\.R3\.fsReg\[78\]
*678 asg\.R3\.fsReg\[79\]
*679 asg\.R3\.fsReg\[7\]
*680 asg\.R3\.fsReg\[80\]
*681 asg\.R3\.fsReg\[81\]
*682 asg\.R3\.fsReg\[82\]
*683 asg\.R3\.fsReg\[83\]
*684 asg\.R3\.fsReg\[84\]
*685 asg\.R3\.fsReg\[85\]
*686 asg\.R3\.fsReg\[86\]
*687 asg\.R3\.fsReg\[87\]
*688 asg\.R3\.fsReg\[88\]
*689 asg\.R3\.fsReg\[8\]
*690 asg\.R3\.fsReg\[9\]
*691 asg\.newBit
*692 clknet_0_clk
*693 clknet_4_0_0_clk
*694 clknet_4_10_0_clk
*695 clknet_4_11_0_clk
*696 clknet_4_12_0_clk
*697 clknet_4_13_0_clk
*698 clknet_4_14_0_clk
*699 clknet_4_15_0_clk
*700 clknet_4_1_0_clk
*701 clknet_4_2_0_clk
*702 clknet_4_3_0_clk
*703 clknet_4_4_0_clk
*704 clknet_4_5_0_clk
*705 clknet_4_6_0_clk
*706 clknet_4_7_0_clk
*707 clknet_4_8_0_clk
*708 clknet_4_9_0_clk
*709 net1
*710 net100
*711 net101
*712 net102
*713 net103
*714 net104
*715 net105
*716 net106
*717 net107
*718 net108
*719 net109
*720 net110
*721 net111
*722 net112
*723 net113
*724 net114
*725 net115
*726 net116
*727 net117
*728 net118
*729 net119
*730 net120
*731 net121
*732 net122
*733 net123
*734 net124
*735 net125
*736 net126
*737 net127
*738 net128
*739 net129
*740 net130
*741 net131
*742 net132
*743 net133
*744 net134
*745 net135
*746 net136
*747 net137
*748 net138
*749 net139
*750 net140
*751 net141
*752 net142
*753 net143
*754 net144
*755 net145
*756 net146
*757 net147
*758 net148
*759 net149
*760 net150
*761 net151
*762 net152
*763 net153
*764 net154
*765 net155
*766 net156
*767 net157
*768 net158
*769 net159
*770 net160
*771 net161
*772 net162
*773 net163
*774 net164
*775 net165
*776 net166
*777 net167
*778 net168
*779 net169
*780 net170
*781 net171
*782 net172
*783 net173
*784 net174
*785 net175
*786 net176
*787 net177
*788 net178
*789 net179
*790 net180
*791 net181
*792 net182
*793 net183
*794 net184
*795 net185
*796 net186
*797 net187
*798 net188
*799 net189
*800 net190
*801 net191
*802 net192
*803 net193
*804 net194
*805 net195
*806 net196
*807 net197
*808 net198
*809 net199
*810 net2
*811 net200
*812 net201
*813 net202
*814 net203
*815 net204
*816 net205
*817 net206
*818 net207
*819 net208
*820 net209
*821 net210
*822 net211
*823 net212
*824 net213
*825 net214
*826 net215
*827 net216
*828 net217
*829 net218
*830 net219
*831 net220
*832 net221
*833 net222
*834 net223
*835 net224
*836 net225
*837 net226
*838 net227
*839 net228
*840 net229
*841 net230
*842 net231
*843 net232
*844 net233
*845 net234
*846 net235
*847 net236
*848 net237
*849 net238
*850 net239
*851 net240
*852 net241
*853 net242
*854 net243
*855 net244
*856 net245
*857 net246
*858 net247
*859 net248
*860 net249
*861 net250
*862 net251
*863 net252
*864 net253
*865 net254
*866 net255
*867 net256
*868 net257
*869 net258
*870 net259
*871 net260
*872 net261
*873 net262
*874 net263
*875 net264
*876 net265
*877 net266
*878 net267
*879 net268
*880 net269
*881 net270
*882 net271
*883 net272
*884 net273
*885 net274
*886 net275
*887 net276
*888 net277
*889 net278
*890 net279
*891 net280
*892 net281
*893 net282
*894 net283
*895 net284
*896 net285
*897 net286
*898 net287
*899 net288
*900 net289
*901 net290
*902 net291
*903 net292
*904 net293
*905 net294
*906 net295
*907 net296
*908 net297
*909 net298
*910 net299
*911 net3
*912 net30
*913 net300
*914 net301
*915 net302
*916 net303
*917 net31
*918 net32
*919 net33
*920 net34
*921 net35
*922 net36
*923 net37
*924 net38
*925 net39
*926 net4
*927 net40
*928 net41
*929 net42
*930 net43
*931 net44
*932 net45
*933 net46
*934 net47
*935 net48
*936 net49
*937 net5
*938 net50
*939 net51
*940 net52
*941 net53
*942 net54
*943 net55
*944 net56
*945 net57
*946 net58
*947 net59
*948 net6
*949 net60
*950 net61
*951 net62
*952 net63
*953 net64
*954 net65
*955 net66
*956 net67
*957 net68
*958 net69
*959 net70
*960 net71
*961 net72
*962 net73
*963 net74
*964 net75
*965 net76
*966 net77
*967 net78
*968 net79
*969 net80
*970 net81
*971 net82
*972 net83
*973 net84
*974 net85
*975 net86
*976 net87
*977 net88
*978 net89
*979 net90
*980 net91
*981 net92
*982 net93
*983 net94
*984 net95
*985 net96
*986 net97
*987 net98
*988 net99
*989 FILLER_0_0_109
*990 FILLER_0_0_113
*991 FILLER_0_0_125
*992 FILLER_0_0_137
*993 FILLER_0_0_141
*994 FILLER_0_0_15
*995 FILLER_0_0_153
*996 FILLER_0_0_165
*997 FILLER_0_0_169
*998 FILLER_0_0_181
*999 FILLER_0_0_193
*1000 FILLER_0_0_197
*1001 FILLER_0_0_209
*1002 FILLER_0_0_221
*1003 FILLER_0_0_225
*1004 FILLER_0_0_237
*1005 FILLER_0_0_249
*1006 FILLER_0_0_253
*1007 FILLER_0_0_265
*1008 FILLER_0_0_27
*1009 FILLER_0_0_277
*1010 FILLER_0_0_281
*1011 FILLER_0_0_29
*1012 FILLER_0_0_293
*1013 FILLER_0_0_3
*1014 FILLER_0_0_305
*1015 FILLER_0_0_309
*1016 FILLER_0_0_321
*1017 FILLER_0_0_333
*1018 FILLER_0_0_41
*1019 FILLER_0_0_53
*1020 FILLER_0_0_57
*1021 FILLER_0_0_69
*1022 FILLER_0_0_81
*1023 FILLER_0_0_85
*1024 FILLER_0_0_97
*1025 FILLER_0_10_101
*1026 FILLER_0_10_139
*1027 FILLER_0_10_146
*1028 FILLER_0_10_15
*1029 FILLER_0_10_185
*1030 FILLER_0_10_193
*1031 FILLER_0_10_197
*1032 FILLER_0_10_201
*1033 FILLER_0_10_231
*1034 FILLER_0_10_27
*1035 FILLER_0_10_29
*1036 FILLER_0_10_3
*1037 FILLER_0_10_333
*1038 FILLER_0_10_41
*1039 FILLER_0_10_53
*1040 FILLER_0_10_65
*1041 FILLER_0_11_103
*1042 FILLER_0_11_111
*1043 FILLER_0_11_113
*1044 FILLER_0_11_124
*1045 FILLER_0_11_128
*1046 FILLER_0_11_137
*1047 FILLER_0_11_148
*1048 FILLER_0_11_15
*1049 FILLER_0_11_167
*1050 FILLER_0_11_169
*1051 FILLER_0_11_190
*1052 FILLER_0_11_223
*1053 FILLER_0_11_245
*1054 FILLER_0_11_253
*1055 FILLER_0_11_27
*1056 FILLER_0_11_3
*1057 FILLER_0_11_301
*1058 FILLER_0_11_334
*1059 FILLER_0_11_39
*1060 FILLER_0_11_51
*1061 FILLER_0_11_55
*1062 FILLER_0_11_57
*1063 FILLER_0_12_103
*1064 FILLER_0_12_111
*1065 FILLER_0_12_129
*1066 FILLER_0_12_15
*1067 FILLER_0_12_154
*1068 FILLER_0_12_171
*1069 FILLER_0_12_189
*1070 FILLER_0_12_201
*1071 FILLER_0_12_250
*1072 FILLER_0_12_27
*1073 FILLER_0_12_29
*1074 FILLER_0_12_297
*1075 FILLER_0_12_3
*1076 FILLER_0_12_333
*1077 FILLER_0_12_41
*1078 FILLER_0_12_82
*1079 FILLER_0_13_110
*1080 FILLER_0_13_113
*1081 FILLER_0_13_15
*1082 FILLER_0_13_169
*1083 FILLER_0_13_190
*1084 FILLER_0_13_202
*1085 FILLER_0_13_212
*1086 FILLER_0_13_223
*1087 FILLER_0_13_246
*1088 FILLER_0_13_253
*1089 FILLER_0_13_27
*1090 FILLER_0_13_294
*1091 FILLER_0_13_3
*1092 FILLER_0_13_332
*1093 FILLER_0_13_39
*1094 FILLER_0_13_51
*1095 FILLER_0_13_55
*1096 FILLER_0_13_57
*1097 FILLER_0_13_79
*1098 FILLER_0_14_116
*1099 FILLER_0_14_125
*1100 FILLER_0_14_15
*1101 FILLER_0_14_152
*1102 FILLER_0_14_197
*1103 FILLER_0_14_209
*1104 FILLER_0_14_215
*1105 FILLER_0_14_224
*1106 FILLER_0_14_233
*1107 FILLER_0_14_250
*1108 FILLER_0_14_253
*1109 FILLER_0_14_264
*1110 FILLER_0_14_27
*1111 FILLER_0_14_282
*1112 FILLER_0_14_289
*1113 FILLER_0_14_29
*1114 FILLER_0_14_3
*1115 FILLER_0_14_333
*1116 FILLER_0_14_41
*1117 FILLER_0_14_53
*1118 FILLER_0_14_81
*1119 FILLER_0_14_98
*1120 FILLER_0_15_113
*1121 FILLER_0_15_124
*1122 FILLER_0_15_15
*1123 FILLER_0_15_151
*1124 FILLER_0_15_197
*1125 FILLER_0_15_209
*1126 FILLER_0_15_21
*1127 FILLER_0_15_222
*1128 FILLER_0_15_262
*1129 FILLER_0_15_28
*1130 FILLER_0_15_297
*1131 FILLER_0_15_3
*1132 FILLER_0_15_40
*1133 FILLER_0_15_52
*1134 FILLER_0_15_63
*1135 FILLER_0_15_71
*1136 FILLER_0_15_90
*1137 FILLER_0_16_108
*1138 FILLER_0_16_120
*1139 FILLER_0_16_139
*1140 FILLER_0_16_15
*1141 FILLER_0_16_19
*1142 FILLER_0_16_201
*1143 FILLER_0_16_29
*1144 FILLER_0_16_299
*1145 FILLER_0_16_3
*1146 FILLER_0_16_333
*1147 FILLER_0_16_39
*1148 FILLER_0_16_51
*1149 FILLER_0_16_63
*1150 FILLER_0_16_81
*1151 FILLER_0_16_96
*1152 FILLER_0_17_109
*1153 FILLER_0_17_119
*1154 FILLER_0_17_15
*1155 FILLER_0_17_155
*1156 FILLER_0_17_166
*1157 FILLER_0_17_169
*1158 FILLER_0_17_213
*1159 FILLER_0_17_221
*1160 FILLER_0_17_241
*1161 FILLER_0_17_261
*1162 FILLER_0_17_279
*1163 FILLER_0_17_281
*1164 FILLER_0_17_298
*1165 FILLER_0_17_3
*1166 FILLER_0_17_33
*1167 FILLER_0_17_333
*1168 FILLER_0_17_47
*1169 FILLER_0_17_73
*1170 FILLER_0_18_11
*1171 FILLER_0_18_121
*1172 FILLER_0_18_133
*1173 FILLER_0_18_139
*1174 FILLER_0_18_165
*1175 FILLER_0_18_195
*1176 FILLER_0_18_205
*1177 FILLER_0_18_217
*1178 FILLER_0_18_229
*1179 FILLER_0_18_3
*1180 FILLER_0_18_306
*1181 FILLER_0_18_309
*1182 FILLER_0_18_334
*1183 FILLER_0_18_83
*1184 FILLER_0_18_85
*1185 FILLER_0_19_113
*1186 FILLER_0_19_117
*1187 FILLER_0_19_126
*1188 FILLER_0_19_162
*1189 FILLER_0_19_169
*1190 FILLER_0_19_186
*1191 FILLER_0_19_198
*1192 FILLER_0_19_202
*1193 FILLER_0_19_233
*1194 FILLER_0_19_251
*1195 FILLER_0_19_277
*1196 FILLER_0_19_281
*1197 FILLER_0_19_3
*1198 FILLER_0_19_308
*1199 FILLER_0_19_333
*1200 FILLER_0_19_48
*1201 FILLER_0_19_73
*1202 FILLER_0_19_9
*1203 FILLER_0_1_105
*1204 FILLER_0_1_111
*1205 FILLER_0_1_113
*1206 FILLER_0_1_125
*1207 FILLER_0_1_137
*1208 FILLER_0_1_149
*1209 FILLER_0_1_15
*1210 FILLER_0_1_161
*1211 FILLER_0_1_167
*1212 FILLER_0_1_169
*1213 FILLER_0_1_181
*1214 FILLER_0_1_193
*1215 FILLER_0_1_205
*1216 FILLER_0_1_217
*1217 FILLER_0_1_223
*1218 FILLER_0_1_225
*1219 FILLER_0_1_237
*1220 FILLER_0_1_249
*1221 FILLER_0_1_261
*1222 FILLER_0_1_27
*1223 FILLER_0_1_273
*1224 FILLER_0_1_279
*1225 FILLER_0_1_281
*1226 FILLER_0_1_293
*1227 FILLER_0_1_3
*1228 FILLER_0_1_305
*1229 FILLER_0_1_317
*1230 FILLER_0_1_329
*1231 FILLER_0_1_39
*1232 FILLER_0_1_51
*1233 FILLER_0_1_55
*1234 FILLER_0_1_57
*1235 FILLER_0_1_69
*1236 FILLER_0_1_81
*1237 FILLER_0_1_93
*1238 FILLER_0_20_11
*1239 FILLER_0_20_112
*1240 FILLER_0_20_136
*1241 FILLER_0_20_141
*1242 FILLER_0_20_147
*1243 FILLER_0_20_192
*1244 FILLER_0_20_245
*1245 FILLER_0_20_251
*1246 FILLER_0_20_258
*1247 FILLER_0_20_298
*1248 FILLER_0_20_3
*1249 FILLER_0_20_333
*1250 FILLER_0_20_43
*1251 FILLER_0_20_52
*1252 FILLER_0_20_74
*1253 FILLER_0_20_85
*1254 FILLER_0_21_103
*1255 FILLER_0_21_113
*1256 FILLER_0_21_131
*1257 FILLER_0_21_143
*1258 FILLER_0_21_169
*1259 FILLER_0_21_187
*1260 FILLER_0_21_220
*1261 FILLER_0_21_225
*1262 FILLER_0_21_250
*1263 FILLER_0_21_258
*1264 FILLER_0_21_266
*1265 FILLER_0_21_275
*1266 FILLER_0_21_279
*1267 FILLER_0_21_289
*1268 FILLER_0_21_297
*1269 FILLER_0_21_3
*1270 FILLER_0_21_305
*1271 FILLER_0_21_314
*1272 FILLER_0_21_322
*1273 FILLER_0_21_33
*1274 FILLER_0_21_333
*1275 FILLER_0_21_52
*1276 FILLER_0_21_57
*1277 FILLER_0_21_69
*1278 FILLER_0_21_73
*1279 FILLER_0_21_90
*1280 FILLER_0_21_99
*1281 FILLER_0_22_101
*1282 FILLER_0_22_11
*1283 FILLER_0_22_135
*1284 FILLER_0_22_139
*1285 FILLER_0_22_141
*1286 FILLER_0_22_190
*1287 FILLER_0_22_247
*1288 FILLER_0_22_251
*1289 FILLER_0_22_253
*1290 FILLER_0_22_265
*1291 FILLER_0_22_277
*1292 FILLER_0_22_283
*1293 FILLER_0_22_290
*1294 FILLER_0_22_3
*1295 FILLER_0_22_333
*1296 FILLER_0_22_37
*1297 FILLER_0_22_63
*1298 FILLER_0_22_67
*1299 FILLER_0_23_101
*1300 FILLER_0_23_111
*1301 FILLER_0_23_133
*1302 FILLER_0_23_145
*1303 FILLER_0_23_177
*1304 FILLER_0_23_185
*1305 FILLER_0_23_194
*1306 FILLER_0_23_202
*1307 FILLER_0_23_214
*1308 FILLER_0_23_223
*1309 FILLER_0_23_225
*1310 FILLER_0_23_252
*1311 FILLER_0_23_264
*1312 FILLER_0_23_3
*1313 FILLER_0_23_329
*1314 FILLER_0_23_38
*1315 FILLER_0_23_55
*1316 FILLER_0_23_57
*1317 FILLER_0_23_63
*1318 FILLER_0_23_76
*1319 FILLER_0_23_9
*1320 FILLER_0_24_102
*1321 FILLER_0_24_11
*1322 FILLER_0_24_127
*1323 FILLER_0_24_134
*1324 FILLER_0_24_141
*1325 FILLER_0_24_150
*1326 FILLER_0_24_154
*1327 FILLER_0_24_181
*1328 FILLER_0_24_187
*1329 FILLER_0_24_197
*1330 FILLER_0_24_203
*1331 FILLER_0_24_207
*1332 FILLER_0_24_224
*1333 FILLER_0_24_250
*1334 FILLER_0_24_3
*1335 FILLER_0_24_307
*1336 FILLER_0_24_309
*1337 FILLER_0_24_333
*1338 FILLER_0_24_37
*1339 FILLER_0_24_41
*1340 FILLER_0_24_60
*1341 FILLER_0_24_71
*1342 FILLER_0_24_77
*1343 FILLER_0_24_91
*1344 FILLER_0_25_11
*1345 FILLER_0_25_111
*1346 FILLER_0_25_113
*1347 FILLER_0_25_141
*1348 FILLER_0_25_166
*1349 FILLER_0_25_169
*1350 FILLER_0_25_179
*1351 FILLER_0_25_218
*1352 FILLER_0_25_241
*1353 FILLER_0_25_27
*1354 FILLER_0_25_278
*1355 FILLER_0_25_3
*1356 FILLER_0_25_308
*1357 FILLER_0_25_334
*1358 FILLER_0_25_38
*1359 FILLER_0_25_48
*1360 FILLER_0_25_57
*1361 FILLER_0_25_61
*1362 FILLER_0_25_76
*1363 FILLER_0_25_88
*1364 FILLER_0_26_101
*1365 FILLER_0_26_11
*1366 FILLER_0_26_128
*1367 FILLER_0_26_141
*1368 FILLER_0_26_167
*1369 FILLER_0_26_194
*1370 FILLER_0_26_213
*1371 FILLER_0_26_217
*1372 FILLER_0_26_246
*1373 FILLER_0_26_253
*1374 FILLER_0_26_261
*1375 FILLER_0_26_3
*1376 FILLER_0_26_306
*1377 FILLER_0_26_309
*1378 FILLER_0_26_318
*1379 FILLER_0_26_334
*1380 FILLER_0_26_37
*1381 FILLER_0_26_41
*1382 FILLER_0_26_64
*1383 FILLER_0_26_81
*1384 FILLER_0_26_93
*1385 FILLER_0_27_110
*1386 FILLER_0_27_121
*1387 FILLER_0_27_140
*1388 FILLER_0_27_169
*1389 FILLER_0_27_180
*1390 FILLER_0_27_223
*1391 FILLER_0_27_225
*1392 FILLER_0_27_234
*1393 FILLER_0_27_246
*1394 FILLER_0_27_258
*1395 FILLER_0_27_279
*1396 FILLER_0_27_300
*1397 FILLER_0_27_331
*1398 FILLER_0_27_35
*1399 FILLER_0_27_39
*1400 FILLER_0_28_122
*1401 FILLER_0_28_152
*1402 FILLER_0_28_171
*1403 FILLER_0_28_183
*1404 FILLER_0_28_192
*1405 FILLER_0_28_205
*1406 FILLER_0_28_211
*1407 FILLER_0_28_223
*1408 FILLER_0_28_238
*1409 FILLER_0_28_251
*1410 FILLER_0_28_253
*1411 FILLER_0_28_257
*1412 FILLER_0_28_26
*1413 FILLER_0_28_29
*1414 FILLER_0_28_292
*1415 FILLER_0_28_3
*1416 FILLER_0_28_300
*1417 FILLER_0_28_307
*1418 FILLER_0_28_333
*1419 FILLER_0_28_41
*1420 FILLER_0_28_57
*1421 FILLER_0_28_83
*1422 FILLER_0_28_85
*1423 FILLER_0_28_89
*1424 FILLER_0_28_9
*1425 FILLER_0_29_138
*1426 FILLER_0_29_146
*1427 FILLER_0_29_158
*1428 FILLER_0_29_166
*1429 FILLER_0_29_169
*1430 FILLER_0_29_187
*1431 FILLER_0_29_195
*1432 FILLER_0_29_213
*1433 FILLER_0_29_245
*1434 FILLER_0_29_249
*1435 FILLER_0_29_257
*1436 FILLER_0_29_279
*1437 FILLER_0_29_3
*1438 FILLER_0_29_332
*1439 FILLER_0_29_53
*1440 FILLER_0_29_57
*1441 FILLER_0_29_82
*1442 FILLER_0_2_109
*1443 FILLER_0_2_121
*1444 FILLER_0_2_133
*1445 FILLER_0_2_139
*1446 FILLER_0_2_141
*1447 FILLER_0_2_15
*1448 FILLER_0_2_153
*1449 FILLER_0_2_165
*1450 FILLER_0_2_177
*1451 FILLER_0_2_189
*1452 FILLER_0_2_195
*1453 FILLER_0_2_197
*1454 FILLER_0_2_209
*1455 FILLER_0_2_221
*1456 FILLER_0_2_233
*1457 FILLER_0_2_245
*1458 FILLER_0_2_251
*1459 FILLER_0_2_253
*1460 FILLER_0_2_265
*1461 FILLER_0_2_27
*1462 FILLER_0_2_277
*1463 FILLER_0_2_289
*1464 FILLER_0_2_29
*1465 FILLER_0_2_3
*1466 FILLER_0_2_301
*1467 FILLER_0_2_307
*1468 FILLER_0_2_309
*1469 FILLER_0_2_321
*1470 FILLER_0_2_333
*1471 FILLER_0_2_41
*1472 FILLER_0_2_53
*1473 FILLER_0_2_65
*1474 FILLER_0_2_77
*1475 FILLER_0_2_83
*1476 FILLER_0_2_85
*1477 FILLER_0_2_97
*1478 FILLER_0_30_109
*1479 FILLER_0_30_11
*1480 FILLER_0_30_127
*1481 FILLER_0_30_131
*1482 FILLER_0_30_141
*1483 FILLER_0_30_176
*1484 FILLER_0_30_191
*1485 FILLER_0_30_221
*1486 FILLER_0_30_238
*1487 FILLER_0_30_250
*1488 FILLER_0_30_253
*1489 FILLER_0_30_293
*1490 FILLER_0_30_3
*1491 FILLER_0_30_309
*1492 FILLER_0_30_334
*1493 FILLER_0_30_83
*1494 FILLER_0_31_11
*1495 FILLER_0_31_151
*1496 FILLER_0_31_169
*1497 FILLER_0_31_214
*1498 FILLER_0_31_225
*1499 FILLER_0_31_246
*1500 FILLER_0_31_270
*1501 FILLER_0_31_285
*1502 FILLER_0_31_3
*1503 FILLER_0_31_333
*1504 FILLER_0_31_37
*1505 FILLER_0_31_41
*1506 FILLER_0_31_57
*1507 FILLER_0_31_61
*1508 FILLER_0_31_80
*1509 FILLER_0_32_11
*1510 FILLER_0_32_112
*1511 FILLER_0_32_141
*1512 FILLER_0_32_152
*1513 FILLER_0_32_172
*1514 FILLER_0_32_176
*1515 FILLER_0_32_193
*1516 FILLER_0_32_197
*1517 FILLER_0_32_209
*1518 FILLER_0_32_221
*1519 FILLER_0_32_247
*1520 FILLER_0_32_251
*1521 FILLER_0_32_253
*1522 FILLER_0_32_265
*1523 FILLER_0_32_275
*1524 FILLER_0_32_3
*1525 FILLER_0_32_309
*1526 FILLER_0_32_334
*1527 FILLER_0_32_45
*1528 FILLER_0_32_83
*1529 FILLER_0_32_85
*1530 FILLER_0_33_11
*1531 FILLER_0_33_127
*1532 FILLER_0_33_151
*1533 FILLER_0_33_161
*1534 FILLER_0_33_167
*1535 FILLER_0_33_169
*1536 FILLER_0_33_179
*1537 FILLER_0_33_206
*1538 FILLER_0_33_218
*1539 FILLER_0_33_254
*1540 FILLER_0_33_260
*1541 FILLER_0_33_264
*1542 FILLER_0_33_273
*1543 FILLER_0_33_289
*1544 FILLER_0_33_3
*1545 FILLER_0_33_30
*1546 FILLER_0_33_331
*1547 FILLER_0_33_49
*1548 FILLER_0_33_57
*1549 FILLER_0_33_91
*1550 FILLER_0_33_95
*1551 FILLER_0_34_11
*1552 FILLER_0_34_116
*1553 FILLER_0_34_134
*1554 FILLER_0_34_149
*1555 FILLER_0_34_163
*1556 FILLER_0_34_171
*1557 FILLER_0_34_194
*1558 FILLER_0_34_197
*1559 FILLER_0_34_209
*1560 FILLER_0_34_217
*1561 FILLER_0_34_251
*1562 FILLER_0_34_3
*1563 FILLER_0_34_309
*1564 FILLER_0_34_51
*1565 FILLER_0_34_83
*1566 FILLER_0_34_91
*1567 FILLER_0_34_99
*1568 FILLER_0_35_11
*1569 FILLER_0_35_121
*1570 FILLER_0_35_162
*1571 FILLER_0_35_169
*1572 FILLER_0_35_204
*1573 FILLER_0_35_210
*1574 FILLER_0_35_257
*1575 FILLER_0_35_29
*1576 FILLER_0_35_3
*1577 FILLER_0_35_302
*1578 FILLER_0_35_333
*1579 FILLER_0_35_38
*1580 FILLER_0_35_54
*1581 FILLER_0_35_57
*1582 FILLER_0_35_63
*1583 FILLER_0_35_72
*1584 FILLER_0_35_78
*1585 FILLER_0_35_95
*1586 FILLER_0_36_128
*1587 FILLER_0_36_141
*1588 FILLER_0_36_213
*1589 FILLER_0_36_251
*1590 FILLER_0_36_27
*1591 FILLER_0_36_3
*1592 FILLER_0_36_306
*1593 FILLER_0_36_333
*1594 FILLER_0_36_83
*1595 FILLER_0_36_93
*1596 FILLER_0_37_113
*1597 FILLER_0_37_136
*1598 FILLER_0_37_158
*1599 FILLER_0_37_169
*1600 FILLER_0_37_207
*1601 FILLER_0_37_219
*1602 FILLER_0_37_223
*1603 FILLER_0_37_241
*1604 FILLER_0_37_279
*1605 FILLER_0_37_3
*1606 FILLER_0_37_301
*1607 FILLER_0_37_32
*1608 FILLER_0_37_334
*1609 FILLER_0_37_43
*1610 FILLER_0_37_47
*1611 FILLER_0_37_57
*1612 FILLER_0_37_7
*1613 FILLER_0_37_70
*1614 FILLER_0_37_87
*1615 FILLER_0_38_113
*1616 FILLER_0_38_122
*1617 FILLER_0_38_129
*1618 FILLER_0_38_137
*1619 FILLER_0_38_144
*1620 FILLER_0_38_150
*1621 FILLER_0_38_162
*1622 FILLER_0_38_166
*1623 FILLER_0_38_169
*1624 FILLER_0_38_174
*1625 FILLER_0_38_194
*1626 FILLER_0_38_197
*1627 FILLER_0_38_209
*1628 FILLER_0_38_217
*1629 FILLER_0_38_225
*1630 FILLER_0_38_245
*1631 FILLER_0_38_26
*1632 FILLER_0_38_269
*1633 FILLER_0_38_279
*1634 FILLER_0_38_313
*1635 FILLER_0_38_323
*1636 FILLER_0_38_334
*1637 FILLER_0_38_41
*1638 FILLER_0_38_77
*1639 FILLER_0_38_85
*1640 FILLER_0_3_105
*1641 FILLER_0_3_111
*1642 FILLER_0_3_113
*1643 FILLER_0_3_125
*1644 FILLER_0_3_142
*1645 FILLER_0_3_15
*1646 FILLER_0_3_154
*1647 FILLER_0_3_166
*1648 FILLER_0_3_169
*1649 FILLER_0_3_181
*1650 FILLER_0_3_193
*1651 FILLER_0_3_205
*1652 FILLER_0_3_217
*1653 FILLER_0_3_223
*1654 FILLER_0_3_225
*1655 FILLER_0_3_237
*1656 FILLER_0_3_249
*1657 FILLER_0_3_261
*1658 FILLER_0_3_27
*1659 FILLER_0_3_273
*1660 FILLER_0_3_279
*1661 FILLER_0_3_281
*1662 FILLER_0_3_293
*1663 FILLER_0_3_3
*1664 FILLER_0_3_305
*1665 FILLER_0_3_317
*1666 FILLER_0_3_329
*1667 FILLER_0_3_39
*1668 FILLER_0_3_51
*1669 FILLER_0_3_55
*1670 FILLER_0_3_57
*1671 FILLER_0_3_69
*1672 FILLER_0_3_81
*1673 FILLER_0_3_93
*1674 FILLER_0_4_109
*1675 FILLER_0_4_117
*1676 FILLER_0_4_137
*1677 FILLER_0_4_149
*1678 FILLER_0_4_15
*1679 FILLER_0_4_161
*1680 FILLER_0_4_173
*1681 FILLER_0_4_185
*1682 FILLER_0_4_193
*1683 FILLER_0_4_197
*1684 FILLER_0_4_209
*1685 FILLER_0_4_215
*1686 FILLER_0_4_226
*1687 FILLER_0_4_246
*1688 FILLER_0_4_253
*1689 FILLER_0_4_265
*1690 FILLER_0_4_27
*1691 FILLER_0_4_277
*1692 FILLER_0_4_289
*1693 FILLER_0_4_29
*1694 FILLER_0_4_3
*1695 FILLER_0_4_301
*1696 FILLER_0_4_307
*1697 FILLER_0_4_309
*1698 FILLER_0_4_321
*1699 FILLER_0_4_333
*1700 FILLER_0_4_41
*1701 FILLER_0_4_53
*1702 FILLER_0_4_65
*1703 FILLER_0_4_77