*SPEF "ieee 1481-1999"
*DESIGN "tt_um_gray_sobel"
*DATE "19:50:58 Friday April 19, 2024"
*VENDOR "The OpenROAD Project"
*PROGRAM "OpenROAD"
*VERSION "0889970d1790a2617e69f253221b8bd7626e51dc"
*DESIGN_FLOW "NAME_SCOPE LOCAL" "PIN_CAP NONE"
*DIVIDER /
*DELIMITER :
*BUS_DELIMITER []
*T_UNIT 1 NS
*C_UNIT 1 PF
*R_UNIT 1 OHM
*L_UNIT 1 HENRY

*NAME_MAP
*3 clk
*4 ena
*5 rst_n
*6 ui_in[0]
*7 ui_in[1]
*8 ui_in[2]
*9 ui_in[3]
*10 ui_in[4]
*11 ui_in[5]
*12 ui_in[6]
*13 ui_in[7]
*14 uio_in[0]
*15 uio_in[1]
*16 uio_in[2]
*17 uio_in[3]
*18 uio_in[4]
*19 uio_in[5]
*20 uio_in[6]
*21 uio_in[7]
*22 net41
*23 net42
*24 net43
*25 net44
*26 net45
*27 net46
*28 net47
*29 net48
*30 net49
*31 net50
*32 net51
*33 net52
*34 net53
*35 net54
*36 net55
*37 net56
*38 uo_out[0]
*39 uo_out[1]
*40 uo_out[2]
*41 uo_out[3]
*42 uo_out[4]
*43 uo_out[5]
*44 uo_out[6]
*45 uo_out[7]
*46 _000_
*47 _001_
*48 _002_
*49 _003_
*50 _004_
*51 _005_
*52 _006_
*53 _007_
*54 _008_
*55 _009_
*56 _010_
*57 _011_
*58 _012_
*59 _013_
*60 _014_
*61 _015_
*62 _016_
*63 _017_
*64 _018_
*65 _019_
*66 _020_
*67 _021_
*68 _022_
*69 _023_
*70 _024_
*71 _025_
*72 _026_
*73 _027_
*74 _028_
*75 _029_
*76 _030_
*77 _031_
*78 _032_
*79 _033_
*80 _034_
*81 _035_
*82 _036_
*83 _037_
*84 _038_
*85 _039_
*86 _040_
*87 _041_
*88 _042_
*89 _043_
*90 _044_
*91 _045_
*92 _046_
*93 _047_
*94 _048_
*95 _049_
*96 _050_
*97 _051_
*98 _052_
*99 _053_
*100 _054_
*101 _055_
*102 _056_
*103 _057_
*104 _058_
*105 _059_
*106 _060_
*107 _061_
*108 _062_
*109 _063_
*110 _064_
*111 _065_
*112 _066_
*113 _067_
*114 _068_
*115 _069_
*116 _070_
*117 _071_
*118 _072_
*119 _073_
*120 _074_
*121 _075_
*122 _076_
*123 _077_
*124 _078_
*125 _079_
*126 _080_
*127 _081_
*128 _082_
*129 clknet_0_clk
*130 clknet_0_spi0\.spi0\._157_
*131 clknet_0_spi0\.spi0\._158_
*132 clknet_0_spi0\.spi0\._159_
*133 clknet_0_ui_in[0]
*134 clknet_1_0__leaf_clk
*135 clknet_1_0__leaf_spi0\.spi0\._157_
*136 clknet_1_0__leaf_spi0\.spi0\._158_
*137 clknet_1_0__leaf_spi0\.spi0\._159_
*138 clknet_1_0__leaf_ui_in[0]
*139 clknet_1_1__leaf_clk
*140 clknet_1_1__leaf_spi0\.spi0\._157_
*141 clknet_1_1__leaf_spi0\.spi0\._158_
*142 clknet_1_1__leaf_spi0\.spi0\._159_
*143 clknet_1_1__leaf_ui_in[0]
*144 clknet_leaf_0_clk
*145 clknet_leaf_10_clk
*146 clknet_leaf_11_clk
*147 clknet_leaf_12_clk
*148 clknet_leaf_13_clk
*149 clknet_leaf_14_clk
*150 clknet_leaf_15_clk
*151 clknet_leaf_16_clk
*152 clknet_leaf_17_clk
*153 clknet_leaf_18_clk
*154 clknet_leaf_19_clk
*155 clknet_leaf_1_clk
*156 clknet_leaf_20_clk
*157 clknet_leaf_21_clk
*158 clknet_leaf_22_clk
*159 clknet_leaf_23_clk
*160 clknet_leaf_2_clk
*161 clknet_leaf_3_clk
*162 clknet_leaf_4_clk
*163 clknet_leaf_5_clk
*164 clknet_leaf_6_clk
*165 clknet_leaf_7_clk
*166 clknet_leaf_8_clk
*167 clknet_leaf_9_clk
*168 gray_sobel0\._000_
*169 gray_sobel0\._001_
*170 gray_sobel0\._002_
*171 gray_sobel0\._003_
*172 gray_sobel0\._004_
*173 gray_sobel0\._005_
*174 gray_sobel0\._006_
*175 gray_sobel0\._007_
*176 gray_sobel0\._008_
*177 gray_sobel0\._009_
*178 gray_sobel0\._010_
*179 gray_sobel0\._011_
*180 gray_sobel0\._012_
*181 gray_sobel0\._013_
*182 gray_sobel0\._014_
*183 gray_sobel0\._015_
*184 gray_sobel0\._016_
*185 gray_sobel0\._017_
*186 gray_sobel0\._018_
*187 gray_sobel0\._019_
*188 gray_sobel0\._020_
*189 gray_sobel0\._021_
*190 gray_sobel0\._022_
*191 gray_sobel0\._023_
*192 gray_sobel0\._024_
*193 gray_sobel0\._025_
*194 gray_sobel0\._026_
*195 gray_sobel0\._027_
*196 gray_sobel0\._028_
*197 gray_sobel0\._029_
*198 gray_sobel0\._030_
*199 gray_sobel0\._031_
*200 gray_sobel0\._032_
*201 gray_sobel0\._033_
*202 gray_sobel0\._034_
*203 gray_sobel0\._035_
*204 gray_sobel0\._036_
*205 gray_sobel0\._037_
*206 gray_sobel0\._038_
*207 gray_sobel0\.gray_scale0\._000_
*208 gray_sobel0\.gray_scale0\._001_
*209 gray_sobel0\.gray_scale0\._002_
*210 gray_sobel0\.gray_scale0\._003_
*211 gray_sobel0\.gray_scale0\._004_
*212 gray_sobel0\.gray_scale0\._005_
*213 gray_sobel0\.gray_scale0\._006_
*214 gray_sobel0\.gray_scale0\._007_
*215 gray_sobel0\.gray_scale0\._008_
*216 gray_sobel0\.gray_scale0\._009_
*217 gray_sobel0\.gray_scale0\._010_
*218 gray_sobel0\.gray_scale0\._011_
*219 gray_sobel0\.gray_scale0\._012_
*220 gray_sobel0\.gray_scale0\._013_
*221 gray_sobel0\.gray_scale0\._014_
*222 gray_sobel0\.gray_scale0\._015_
*223 gray_sobel0\.gray_scale0\._016_
*224 gray_sobel0\.gray_scale0\._017_
*225 gray_sobel0\.gray_scale0\._018_
*226 gray_sobel0\.gray_scale0\._019_
*227 gray_sobel0\.gray_scale0\._020_
*228 gray_sobel0\.gray_scale0\._021_
*229 gray_sobel0\.gray_scale0\._022_
*230 gray_sobel0\.gray_scale0\._023_
*231 gray_sobel0\.gray_scale0\._024_
*232 gray_sobel0\.gray_scale0\._025_
*233 gray_sobel0\.gray_scale0\._026_
*234 gray_sobel0\.gray_scale0\._027_
*235 gray_sobel0\.gray_scale0\._028_
*236 gray_sobel0\.gray_scale0\._029_
*237 gray_sobel0\.gray_scale0\._030_
*238 gray_sobel0\.gray_scale0\._031_
*239 gray_sobel0\.gray_scale0\._032_
*240 gray_sobel0\.gray_scale0\._033_
*241 gray_sobel0\.gray_scale0\._034_
*242 gray_sobel0\.gray_scale0\._035_
*243 gray_sobel0\.gray_scale0\._036_
*244 gray_sobel0\.gray_scale0\._037_
*245 gray_sobel0\.gray_scale0\._038_
*246 gray_sobel0\.gray_scale0\._039_
*247 gray_sobel0\.gray_scale0\._040_
*248 gray_sobel0\.gray_scale0\._041_
*249 gray_sobel0\.gray_scale0\._042_
*250 gray_sobel0\.gray_scale0\._043_
*251 gray_sobel0\.gray_scale0\._044_
*252 gray_sobel0\.gray_scale0\._045_
*253 gray_sobel0\.gray_scale0\._046_
*254 gray_sobel0\.gray_scale0\._047_
*255 gray_sobel0\.gray_scale0\._048_
*256 gray_sobel0\.gray_scale0\._049_
*257 gray_sobel0\.gray_scale0\._050_
*258 gray_sobel0\.gray_scale0\._051_
*259 gray_sobel0\.gray_scale0\._052_
*260 gray_sobel0\.gray_scale0\._053_
*261 gray_sobel0\.gray_scale0\._054_
*262 gray_sobel0\.gray_scale0\._055_
*263 gray_sobel0\.gray_scale0\._056_
*264 gray_sobel0\.gray_scale0\._057_
*265 gray_sobel0\.gray_scale0\._058_
*266 gray_sobel0\.gray_scale0\._059_
*267 gray_sobel0\.gray_scale0\._060_
*268 gray_sobel0\.gray_scale0\._061_
*269 gray_sobel0\.gray_scale0\._062_
*270 gray_sobel0\.gray_scale0\._063_
*271 gray_sobel0\.gray_scale0\._064_
*272 gray_sobel0\.gray_scale0\._065_
*273 gray_sobel0\.gray_scale0\._066_
*274 gray_sobel0\.gray_scale0\._067_
*275 gray_sobel0\.gray_scale0\._068_
*276 gray_sobel0\.gray_scale0\._069_
*277 gray_sobel0\.gray_scale0\._070_
*278 gray_sobel0\.gray_scale0\._071_
*279 gray_sobel0\.gray_scale0\._072_
*280 gray_sobel0\.gray_scale0\._073_
*281 gray_sobel0\.gray_scale0\._074_
*282 gray_sobel0\.gray_scale0\._075_
*283 gray_sobel0\.gray_scale0\._076_
*284 gray_sobel0\.gray_scale0\._077_
*285 gray_sobel0\.gray_scale0\._078_
*286 gray_sobel0\.gray_scale0\._079_
*287 gray_sobel0\.gray_scale0\._080_
*288 gray_sobel0\.gray_scale0\._081_
*289 gray_sobel0\.gray_scale0\._082_
*290 gray_sobel0\.gray_scale0\._083_
*291 gray_sobel0\.gray_scale0\._084_
*292 gray_sobel0\.gray_scale0\._085_
*293 gray_sobel0\.gray_scale0\._086_
*294 gray_sobel0\.gray_scale0\._087_
*295 gray_sobel0\.gray_scale0\._088_
*296 gray_sobel0\.gray_scale0\._089_
*297 gray_sobel0\.gray_scale0\._090_
*298 gray_sobel0\.gray_scale0\._091_
*299 gray_sobel0\.gray_scale0\._092_
*300 gray_sobel0\.gray_scale0\._093_
*301 gray_sobel0\.gray_scale0\._094_
*302 gray_sobel0\.gray_scale0\._095_
*303 gray_sobel0\.gray_scale0\._096_
*304 gray_sobel0\.gray_scale0\._097_
*305 gray_sobel0\.gray_scale0\._098_
*306 gray_sobel0\.gray_scale0\._099_
*307 gray_sobel0\.gray_scale0\._100_
*308 gray_sobel0\.gray_scale0\._101_
*309 gray_sobel0\.gray_scale0\._102_
*310 gray_sobel0\.gray_scale0\.in_px_rgb_i\[0\]
*311 gray_sobel0\.gray_scale0\.in_px_rgb_i\[10\]
*312 gray_sobel0\.gray_scale0\.in_px_rgb_i\[11\]
*313 gray_sobel0\.gray_scale0\.in_px_rgb_i\[12\]
*314 gray_sobel0\.gray_scale0\.in_px_rgb_i\[13\]
*315 gray_sobel0\.gray_scale0\.in_px_rgb_i\[14\]
*316 gray_sobel0\.gray_scale0\.in_px_rgb_i\[15\]
*317 gray_sobel0\.gray_scale0\.in_px_rgb_i\[16\]
*318 gray_sobel0\.gray_scale0\.in_px_rgb_i\[17\]
*319 gray_sobel0\.gray_scale0\.in_px_rgb_i\[18\]
*320 gray_sobel0\.gray_scale0\.in_px_rgb_i\[19\]
*321 gray_sobel0\.gray_scale0\.in_px_rgb_i\[1\]
*322 gray_sobel0\.gray_scale0\.in_px_rgb_i\[20\]
*323 gray_sobel0\.gray_scale0\.in_px_rgb_i\[21\]
*324 gray_sobel0\.gray_scale0\.in_px_rgb_i\[22\]
*325 gray_sobel0\.gray_scale0\.in_px_rgb_i\[23\]
*326 gray_sobel0\.gray_scale0\.in_px_rgb_i\[2\]
*327 gray_sobel0\.gray_scale0\.in_px_rgb_i\[3\]
*328 gray_sobel0\.gray_scale0\.in_px_rgb_i\[4\]
*329 gray_sobel0\.gray_scale0\.in_px_rgb_i\[5\]
*330 gray_sobel0\.gray_scale0\.in_px_rgb_i\[6\]
*331 gray_sobel0\.gray_scale0\.in_px_rgb_i\[7\]
*332 gray_sobel0\.gray_scale0\.in_px_rgb_i\[8\]
*333 gray_sobel0\.gray_scale0\.in_px_rgb_i\[9\]
*334 gray_sobel0\.gray_scale0\.nreset_i
*335 gray_sobel0\.gray_scale0\.out_px_gray_o\[0\]
*336 gray_sobel0\.gray_scale0\.out_px_gray_o\[1\]
*337 gray_sobel0\.gray_scale0\.out_px_gray_o\[2\]
*338 gray_sobel0\.gray_scale0\.out_px_gray_o\[3\]
*339 gray_sobel0\.gray_scale0\.out_px_gray_o\[4\]
*340 gray_sobel0\.gray_scale0\.out_px_gray_o\[5\]
*341 gray_sobel0\.gray_scale0\.out_px_gray_o\[6\]
*342 gray_sobel0\.gray_scale0\.out_px_gray_o\[7\]
*343 gray_sobel0\.gray_scale0\.px_rdy_i
*344 gray_sobel0\.gray_scale0\.px_rdy_o
*345 gray_sobel0\.in_px_sobel\[0\]
*346 gray_sobel0\.in_px_sobel\[1\]
*347 gray_sobel0\.in_px_sobel\[2\]
*348 gray_sobel0\.in_px_sobel\[3\]
*349 gray_sobel0\.in_px_sobel\[4\]
*350 gray_sobel0\.in_px_sobel\[5\]
*351 gray_sobel0\.in_px_sobel\[6\]
*352 gray_sobel0\.in_px_sobel\[7\]
*353 gray_sobel0\.out_pixel_o\[0\]
*354 gray_sobel0\.out_pixel_o\[10\]
*355 gray_sobel0\.out_pixel_o\[11\]
*356 gray_sobel0\.out_pixel_o\[12\]
*357 gray_sobel0\.out_pixel_o\[13\]
*358 gray_sobel0\.out_pixel_o\[14\]
*359 gray_sobel0\.out_pixel_o\[15\]
*360 gray_sobel0\.out_pixel_o\[16\]
*361 gray_sobel0\.out_pixel_o\[17\]
*362 gray_sobel0\.out_pixel_o\[18\]
*363 gray_sobel0\.out_pixel_o\[19\]
*364 gray_sobel0\.out_pixel_o\[1\]
*365 gray_sobel0\.out_pixel_o\[20\]
*366 gray_sobel0\.out_pixel_o\[21\]
*367 gray_sobel0\.out_pixel_o\[22\]
*368 gray_sobel0\.out_pixel_o\[23\]
*369 gray_sobel0\.out_pixel_o\[2\]
*370 gray_sobel0\.out_pixel_o\[3\]
*371 gray_sobel0\.out_pixel_o\[4\]
*372 gray_sobel0\.out_pixel_o\[5\]
*373 gray_sobel0\.out_pixel_o\[6\]
*374 gray_sobel0\.out_pixel_o\[7\]
*375 gray_sobel0\.out_pixel_o\[8\]
*376 gray_sobel0\.out_pixel_o\[9\]
*377 gray_sobel0\.out_px_sobel\[0\]
*378 gray_sobel0\.out_px_sobel\[1\]
*379 gray_sobel0\.out_px_sobel\[2\]
*380 gray_sobel0\.out_px_sobel\[3\]
*381 gray_sobel0\.out_px_sobel\[4\]
*382 gray_sobel0\.out_px_sobel\[5\]
*383 gray_sobel0\.out_px_sobel\[6\]
*384 gray_sobel0\.out_px_sobel\[7\]
*385 gray_sobel0\.px_rdy_i_sobel
*386 gray_sobel0\.px_rdy_o
*387 gray_sobel0\.px_rdy_o_sobel
*388 gray_sobel0\.sobel0\._000_
*389 gray_sobel0\.sobel0\._001_
*390 gray_sobel0\.sobel0\._002_
*391 gray_sobel0\.sobel0\._003_
*392 gray_sobel0\.sobel0\._004_
*393 gray_sobel0\.sobel0\._005_
*394 gray_sobel0\.sobel0\._006_
*395 gray_sobel0\.sobel0\._007_
*396 gray_sobel0\.sobel0\._008_
*397 gray_sobel0\.sobel0\._009_
*398 gray_sobel0\.sobel0\._010_
*399 gray_sobel0\.sobel0\._011_
*400 gray_sobel0\.sobel0\._012_
*401 gray_sobel0\.sobel0\._013_
*402 gray_sobel0\.sobel0\._014_
*403 gray_sobel0\.sobel0\._015_
*404 gray_sobel0\.sobel0\._016_
*405 gray_sobel0\.sobel0\._017_
*406 gray_sobel0\.sobel0\._018_
*407 gray_sobel0\.sobel0\._019_
*408 gray_sobel0\.sobel0\._020_
*409 gray_sobel0\.sobel0\._021_
*410 gray_sobel0\.sobel0\._022_
*411 gray_sobel0\.sobel0\._023_
*412 gray_sobel0\.sobel0\._024_
*413 gray_sobel0\.sobel0\._025_
*414 gray_sobel0\.sobel0\._026_
*415 gray_sobel0\.sobel0\._027_
*416 gray_sobel0\.sobel0\._028_
*417 gray_sobel0\.sobel0\._029_
*418 gray_sobel0\.sobel0\._030_
*419 gray_sobel0\.sobel0\._031_
*420 gray_sobel0\.sobel0\._032_
*421 gray_sobel0\.sobel0\._033_
*422 gray_sobel0\.sobel0\._034_
*423 gray_sobel0\.sobel0\._035_
*424 gray_sobel0\.sobel0\._036_
*425 gray_sobel0\.sobel0\._037_
*426 gray_sobel0\.sobel0\._038_
*427 gray_sobel0\.sobel0\._039_
*428 gray_sobel0\.sobel0\._040_
*429 gray_sobel0\.sobel0\._041_
*430 gray_sobel0\.sobel0\._042_
*431 gray_sobel0\.sobel0\._043_
*432 gray_sobel0\.sobel0\._044_
*433 gray_sobel0\.sobel0\._045_
*434 gray_sobel0\.sobel0\._046_
*435 gray_sobel0\.sobel0\._047_
*436 gray_sobel0\.sobel0\._048_
*437 gray_sobel0\.sobel0\._049_
*438 gray_sobel0\.sobel0\._050_
*439 gray_sobel0\.sobel0\._051_
*440 gray_sobel0\.sobel0\._052_
*441 gray_sobel0\.sobel0\._053_
*442 gray_sobel0\.sobel0\._054_
*443 gray_sobel0\.sobel0\._055_
*444 gray_sobel0\.sobel0\._056_
*445 gray_sobel0\.sobel0\._057_
*446 gray_sobel0\.sobel0\._058_
*447 gray_sobel0\.sobel0\._059_
*448 gray_sobel0\.sobel0\._060_
*449 gray_sobel0\.sobel0\._061_
*450 gray_sobel0\.sobel0\._062_
*451 gray_sobel0\.sobel0\._063_
*452 gray_sobel0\.sobel0\._064_
*453 gray_sobel0\.sobel0\._065_
*454 gray_sobel0\.sobel0\._066_
*455 gray_sobel0\.sobel0\._067_
*456 gray_sobel0\.sobel0\._068_
*457 gray_sobel0\.sobel0\._069_
*458 gray_sobel0\.sobel0\._070_
*459 gray_sobel0\.sobel0\._071_
*460 gray_sobel0\.sobel0\._072_
*461 gray_sobel0\.sobel0\._073_
*462 gray_sobel0\.sobel0\._074_
*463 gray_sobel0\.sobel0\._075_
*464 gray_sobel0\.sobel0\._076_
*465 gray_sobel0\.sobel0\._077_
*466 gray_sobel0\.sobel0\._078_
*467 gray_sobel0\.sobel0\._079_
*468 gray_sobel0\.sobel0\._080_
*469 gray_sobel0\.sobel0\._081_
*470 gray_sobel0\.sobel0\._082_
*471 gray_sobel0\.sobel0\._083_
*472 gray_sobel0\.sobel0\._084_
*473 gray_sobel0\.sobel0\._085_
*474 gray_sobel0\.sobel0\._086_
*475 gray_sobel0\.sobel0\._087_
*476 gray_sobel0\.sobel0\._088_
*477 gray_sobel0\.sobel0\._089_
*478 gray_sobel0\.sobel0\._090_
*479 gray_sobel0\.sobel0\._091_
*480 gray_sobel0\.sobel0\._092_
*481 gray_sobel0\.sobel0\._093_
*482 gray_sobel0\.sobel0\._094_
*483 gray_sobel0\.sobel0\._095_
*484 gray_sobel0\.sobel0\._096_
*485 gray_sobel0\.sobel0\._097_
*486 gray_sobel0\.sobel0\._098_
*487 gray_sobel0\.sobel0\._099_
*488 gray_sobel0\.sobel0\._100_
*489 gray_sobel0\.sobel0\._101_
*490 gray_sobel0\.sobel0\._102_
*491 gray_sobel0\.sobel0\._103_
*492 gray_sobel0\.sobel0\._104_
*493 gray_sobel0\.sobel0\._105_
*494 gray_sobel0\.sobel0\._106_
*495 gray_sobel0\.sobel0\._107_
*496 gray_sobel0\.sobel0\._108_
*497 gray_sobel0\.sobel0\._109_
*498 gray_sobel0\.sobel0\._110_
*499 gray_sobel0\.sobel0\._111_
*500 gray_sobel0\.sobel0\._112_
*501 gray_sobel0\.sobel0\._113_
*502 gray_sobel0\.sobel0\._114_
*503 gray_sobel0\.sobel0\._115_
*504 gray_sobel0\.sobel0\._116_
*505 gray_sobel0\.sobel0\._117_
*506 gray_sobel0\.sobel0\._118_
*507 gray_sobel0\.sobel0\._119_
*508 gray_sobel0\.sobel0\._120_
*509 gray_sobel0\.sobel0\._121_
*510 gray_sobel0\.sobel0\._122_
*511 gray_sobel0\.sobel0\._123_
*512 gray_sobel0\.sobel0\._124_
*513 gray_sobel0\.sobel0\._125_
*514 gray_sobel0\.sobel0\._126_
*515 gray_sobel0\.sobel0\._127_
*516 gray_sobel0\.sobel0\._128_
*517 gray_sobel0\.sobel0\._129_
*518 gray_sobel0\.sobel0\._130_
*519 gray_sobel0\.sobel0\._131_
*520 gray_sobel0\.sobel0\._132_
*521 gray_sobel0\.sobel0\._133_
*522 gray_sobel0\.sobel0\._134_
*523 gray_sobel0\.sobel0\._135_
*524 gray_sobel0\.sobel0\._136_
*525 gray_sobel0\.sobel0\._137_
*526 gray_sobel0\.sobel0\._138_
*527 gray_sobel0\.sobel0\._139_
*528 gray_sobel0\.sobel0\._140_
*529 gray_sobel0\.sobel0\._141_
*530 gray_sobel0\.sobel0\._142_
*531 gray_sobel0\.sobel0\._143_
*532 gray_sobel0\.sobel0\._144_
*533 gray_sobel0\.sobel0\._145_
*534 gray_sobel0\.sobel0\._146_
*535 gray_sobel0\.sobel0\._147_
*536 gray_sobel0\.sobel0\._148_
*537 gray_sobel0\.sobel0\._149_
*538 gray_sobel0\.sobel0\._150_
*539 gray_sobel0\.sobel0\._151_
*540 gray_sobel0\.sobel0\._152_
*541 gray_sobel0\.sobel0\._153_
*542 gray_sobel0\.sobel0\._154_
*543 gray_sobel0\.sobel0\._155_
*544 gray_sobel0\.sobel0\._156_
*545 gray_sobel0\.sobel0\._157_
*546 gray_sobel0\.sobel0\._158_
*547 gray_sobel0\.sobel0\._159_
*548 gray_sobel0\.sobel0\._160_
*549 gray_sobel0\.sobel0\._161_
*550 gray_sobel0\.sobel0\._162_
*551 gray_sobel0\.sobel0\._163_
*552 gray_sobel0\.sobel0\._164_
*553 gray_sobel0\.sobel0\._165_
*554 gray_sobel0\.sobel0\._166_
*555 gray_sobel0\.sobel0\._167_
*556 gray_sobel0\.sobel0\._168_
*557 gray_sobel0\.sobel0\._169_
*558 gray_sobel0\.sobel0\._170_
*559 gray_sobel0\.sobel0\._171_
*560 gray_sobel0\.sobel0\._172_
*561 gray_sobel0\.sobel0\._173_
*562 gray_sobel0\.sobel0\._174_
*563 gray_sobel0\.sobel0\._175_
*564 gray_sobel0\.sobel0\._176_
*565 gray_sobel0\.sobel0\._177_
*566 gray_sobel0\.sobel0\._178_
*567 gray_sobel0\.sobel0\._179_
*568 gray_sobel0\.sobel0\._180_
*569 gray_sobel0\.sobel0\._181_
*570 gray_sobel0\.sobel0\._182_
*571 gray_sobel0\.sobel0\._183_
*572 gray_sobel0\.sobel0\._184_
*573 gray_sobel0\.sobel0\._185_
*574 gray_sobel0\.sobel0\._186_
*575 gray_sobel0\.sobel0\._187_
*576 gray_sobel0\.sobel0\._188_
*577 gray_sobel0\.sobel0\._189_
*578 gray_sobel0\.sobel0\._190_
*579 gray_sobel0\.sobel0\._191_
*580 gray_sobel0\.sobel0\._192_
*581 gray_sobel0\.sobel0\._193_
*582 gray_sobel0\.sobel0\._194_
*583 gray_sobel0\.sobel0\._195_
*584 gray_sobel0\.sobel0\._196_
*585 gray_sobel0\.sobel0\._197_
*586 gray_sobel0\.sobel0\._198_
*587 gray_sobel0\.sobel0\._199_
*588 gray_sobel0\.sobel0\._200_
*589 gray_sobel0\.sobel0\._201_
*590 gray_sobel0\.sobel0\._202_
*591 gray_sobel0\.sobel0\._203_
*592 gray_sobel0\.sobel0\._204_
*593 gray_sobel0\.sobel0\._205_
*594 gray_sobel0\.sobel0\._206_
*595 gray_sobel0\.sobel0\._207_
*596 gray_sobel0\.sobel0\._208_
*597 gray_sobel0\.sobel0\._209_
*598 gray_sobel0\.sobel0\._210_
*599 gray_sobel0\.sobel0\._211_
*600 gray_sobel0\.sobel0\._212_
*601 gray_sobel0\.sobel0\._213_
*602 gray_sobel0\.sobel0\._214_
*603 gray_sobel0\.sobel0\._215_
*604 gray_sobel0\.sobel0\._216_
*605 gray_sobel0\.sobel0\._217_
*606 gray_sobel0\.sobel0\._218_
*607 gray_sobel0\.sobel0\._219_
*608 gray_sobel0\.sobel0\._220_
*609 gray_sobel0\.sobel0\._221_
*610 gray_sobel0\.sobel0\._222_
*611 gray_sobel0\.sobel0\._223_
*612 gray_sobel0\.sobel0\._224_
*613 gray_sobel0\.sobel0\._225_
*614 gray_sobel0\.sobel0\._226_
*615 gray_sobel0\.sobel0\._227_
*616 gray_sobel0\.sobel0\._228_
*617 gray_sobel0\.sobel0\._229_
*618 gray_sobel0\.sobel0\._230_
*619 gray_sobel0\.sobel0\._231_
*620 gray_sobel0\.sobel0\._232_
*621 gray_sobel0\.sobel0\._233_
*622 gray_sobel0\.sobel0\._234_
*623 gray_sobel0\.sobel0\._235_
*624 gray_sobel0\.sobel0\._236_
*625 gray_sobel0\.sobel0\._237_
*626 gray_sobel0\.sobel0\._238_
*627 gray_sobel0\.sobel0\._239_
*628 gray_sobel0\.sobel0\._240_
*629 gray_sobel0\.sobel0\._241_
*630 gray_sobel0\.sobel0\._242_
*631 gray_sobel0\.sobel0\._243_
*632 gray_sobel0\.sobel0\._244_
*633 gray_sobel0\.sobel0\._245_
*634 gray_sobel0\.sobel0\._246_
*635 gray_sobel0\.sobel0\._247_
*636 gray_sobel0\.sobel0\._248_
*637 gray_sobel0\.sobel0\._249_
*638 gray_sobel0\.sobel0\._250_
*639 gray_sobel0\.sobel0\._251_
*640 gray_sobel0\.sobel0\._252_
*641 gray_sobel0\.sobel0\._253_
*642 gray_sobel0\.sobel0\._254_
*643 gray_sobel0\.sobel0\._255_
*644 gray_sobel0\.sobel0\._256_
*645 gray_sobel0\.sobel0\._257_
*646 gray_sobel0\.sobel0\._258_
*647 gray_sobel0\.sobel0\._259_
*648 gray_sobel0\.sobel0\._260_
*649 gray_sobel0\.sobel0\._261_
*650 gray_sobel0\.sobel0\._262_
*651 gray_sobel0\.sobel0\._263_
*652 gray_sobel0\.sobel0\._264_
*653 gray_sobel0\.sobel0\._265_
*654 gray_sobel0\.sobel0\._266_
*655 gray_sobel0\.sobel0\._267_
*656 gray_sobel0\.sobel0\._268_
*657 gray_sobel0\.sobel0\._269_
*658 gray_sobel0\.sobel0\._270_
*659 gray_sobel0\.sobel0\._271_
*660 gray_sobel0\.sobel0\._272_
*661 gray_sobel0\.sobel0\._273_
*662 gray_sobel0\.sobel0\._274_
*663 gray_sobel0\.sobel0\._275_
*664 gray_sobel0\.sobel0\._276_
*665 gray_sobel0\.sobel0\._277_
*666 gray_sobel0\.sobel0\._278_
*667 gray_sobel0\.sobel0\._279_
*668 gray_sobel0\.sobel0\._280_
*669 gray_sobel0\.sobel0\._281_
*670 gray_sobel0\.sobel0\._282_
*671 gray_sobel0\.sobel0\._283_
*672 gray_sobel0\.sobel0\._284_
*673 gray_sobel0\.sobel0\._285_
*674 gray_sobel0\.sobel0\._286_
*675 gray_sobel0\.sobel0\._287_
*676 gray_sobel0\.sobel0\._288_
*677 gray_sobel0\.sobel0\._289_
*678 gray_sobel0\.sobel0\._290_
*679 gray_sobel0\.sobel0\._291_
*680 gray_sobel0\.sobel0\._292_
*681 gray_sobel0\.sobel0\._293_
*682 gray_sobel0\.sobel0\._294_
*683 gray_sobel0\.sobel0\._295_
*684 gray_sobel0\.sobel0\._296_
*685 gray_sobel0\.sobel0\._297_
*686 gray_sobel0\.sobel0\._298_
*687 gray_sobel0\.sobel0\._299_
*688 gray_sobel0\.sobel0\._300_
*689 gray_sobel0\.sobel0\._301_
*690 gray_sobel0\.sobel0\._302_
*691 gray_sobel0\.sobel0\._303_
*692 gray_sobel0\.sobel0\._304_
*693 gray_sobel0\.sobel0\._305_
*694 gray_sobel0\.sobel0\._306_
*695 gray_sobel0\.sobel0\._307_
*696 gray_sobel0\.sobel0\._308_
*697 gray_sobel0\.sobel0\._309_
*698 gray_sobel0\.sobel0\._310_
*699 gray_sobel0\.sobel0\._311_
*700 gray_sobel0\.sobel0\._312_
*701 gray_sobel0\.sobel0\._313_
*702 gray_sobel0\.sobel0\._314_
*703 gray_sobel0\.sobel0\._315_
*704 gray_sobel0\.sobel0\._316_
*705 gray_sobel0\.sobel0\._317_
*706 gray_sobel0\.sobel0\._318_
*707 gray_sobel0\.sobel0\._319_
*708 gray_sobel0\.sobel0\._320_
*709 gray_sobel0\.sobel0\._321_
*710 gray_sobel0\.sobel0\._322_
*711 gray_sobel0\.sobel0\._323_
*712 gray_sobel0\.sobel0\._324_
*713 gray_sobel0\.sobel0\._325_
*714 gray_sobel0\.sobel0\._326_
*715 gray_sobel0\.sobel0\._327_
*716 gray_sobel0\.sobel0\._328_
*717 gray_sobel0\.sobel0\._329_
*718 gray_sobel0\.sobel0\._330_
*719 gray_sobel0\.sobel0\._331_
*720 gray_sobel0\.sobel0\._332_
*721 gray_sobel0\.sobel0\._333_
*722 gray_sobel0\.sobel0\._334_
*723 gray_sobel0\.sobel0\._335_
*724 gray_sobel0\.sobel0\._336_
*725 gray_sobel0\.sobel0\._337_
*726 gray_sobel0\.sobel0\._338_
*727 gray_sobel0\.sobel0\._339_
*728 gray_sobel0\.sobel0\._340_
*729 gray_sobel0\.sobel0\._341_
*730 gray_sobel0\.sobel0\._342_
*731 gray_sobel0\.sobel0\._343_
*732 gray_sobel0\.sobel0\._344_
*733 gray_sobel0\.sobel0\._345_
*734 gray_sobel0\.sobel0\._346_
*735 gray_sobel0\.sobel0\._347_
*736 gray_sobel0\.sobel0\._348_
*737 gray_sobel0\.sobel0\._349_
*738 gray_sobel0\.sobel0\._350_
*739 gray_sobel0\.sobel0\._351_
*740 gray_sobel0\.sobel0\._352_
*741 gray_sobel0\.sobel0\._353_
*742 gray_sobel0\.sobel0\._354_
*743 gray_sobel0\.sobel0\._355_
*744 gray_sobel0\.sobel0\._356_
*745 gray_sobel0\.sobel0\._357_
*746 gray_sobel0\.sobel0\._358_
*747 gray_sobel0\.sobel0\._359_
*748 gray_sobel0\.sobel0\._360_
*749 gray_sobel0\.sobel0\._361_
*750 gray_sobel0\.sobel0\._362_
*751 gray_sobel0\.sobel0\._363_
*752 gray_sobel0\.sobel0\._364_
*753 gray_sobel0\.sobel0\._365_
*754 gray_sobel0\.sobel0\._366_
*755 gray_sobel0\.sobel0\._367_
*756 gray_sobel0\.sobel0\.counter_pixels\[0\]
*757 gray_sobel0\.sobel0\.counter_pixels\[10\]
*758 gray_sobel0\.sobel0\.counter_pixels\[11\]
*759 gray_sobel0\.sobel0\.counter_pixels\[12\]
*760 gray_sobel0\.sobel0\.counter_pixels\[13\]
*761 gray_sobel0\.sobel0\.counter_pixels\[14\]
*762 gray_sobel0\.sobel0\.counter_pixels\[15\]
*763 gray_sobel0\.sobel0\.counter_pixels\[16\]
*764 gray_sobel0\.sobel0\.counter_pixels\[17\]
*765 gray_sobel0\.sobel0\.counter_pixels\[18\]
*766 gray_sobel0\.sobel0\.counter_pixels\[19\]
*767 gray_sobel0\.sobel0\.counter_pixels\[1\]
*768 gray_sobel0\.sobel0\.counter_pixels\[20\]
*769 gray_sobel0\.sobel0\.counter_pixels\[21\]
*770 gray_sobel0\.sobel0\.counter_pixels\[22\]
*771 gray_sobel0\.sobel0\.counter_pixels\[23\]
*772 gray_sobel0\.sobel0\.counter_pixels\[2\]
*773 gray_sobel0\.sobel0\.counter_pixels\[3\]
*774 gray_sobel0\.sobel0\.counter_pixels\[4\]
*775 gray_sobel0\.sobel0\.counter_pixels\[5\]
*776 gray_sobel0\.sobel0\.counter_pixels\[6\]
*777 gray_sobel0\.sobel0\.counter_pixels\[7\]
*778 gray_sobel0\.sobel0\.counter_pixels\[8\]
*779 gray_sobel0\.sobel0\.counter_pixels\[9\]
*780 gray_sobel0\.sobel0\.counter_sobel\[0\]
*781 gray_sobel0\.sobel0\.counter_sobel\[1\]
*782 gray_sobel0\.sobel0\.counter_sobel\[2\]
*783 gray_sobel0\.sobel0\.counter_sobel\[3\]
*784 gray_sobel0\.sobel0\.fsm_state\[0\]
*785 gray_sobel0\.sobel0\.fsm_state\[1\]
*786 gray_sobel0\.sobel0\.next\[0\]
*787 gray_sobel0\.sobel0\.next\[1\]
*788 gray_sobel0\.sobel0\.out_sobel_core\[0\]
*789 gray_sobel0\.sobel0\.out_sobel_core\[1\]
*790 gray_sobel0\.sobel0\.out_sobel_core\[2\]
*791 gray_sobel0\.sobel0\.out_sobel_core\[3\]
*792 gray_sobel0\.sobel0\.out_sobel_core\[4\]
*793 gray_sobel0\.sobel0\.out_sobel_core\[5\]
*794 gray_sobel0\.sobel0\.out_sobel_core\[6\]
*795 gray_sobel0\.sobel0\.out_sobel_core\[7\]
*796 gray_sobel0\.sobel0\.px_ready
*797 gray_sobel0\.sobel0\.sobel\._0000_
*798 gray_sobel0\.sobel0\.sobel\._0001_
*799 gray_sobel0\.sobel0\.sobel\._0002_
*800 gray_sobel0\.sobel0\.sobel\._0003_
*801 gray_sobel0\.sobel0\.sobel\._0004_
*802 gray_sobel0\.sobel0\.sobel\._0005_
*803 gray_sobel0\.sobel0\.sobel\._0006_
*804 gray_sobel0\.sobel0\.sobel\._0007_
*805 gray_sobel0\.sobel0\.sobel\._0008_
*806 gray_sobel0\.sobel0\.sobel\._0009_
*807 gray_sobel0\.sobel0\.sobel\._0010_
*808 gray_sobel0\.sobel0\.sobel\._0011_
*809 gray_sobel0\.sobel0\.sobel\._0012_
*810 gray_sobel0\.sobel0\.sobel\._0013_
*811 gray_sobel0\.sobel0\.sobel\._0014_
*812 gray_sobel0\.sobel0\.sobel\._0015_
*813 gray_sobel0\.sobel0\.sobel\._0016_
*814 gray_sobel0\.sobel0\.sobel\._0017_
*815 gray_sobel0\.sobel0\.sobel\._0018_
*816 gray_sobel0\.sobel0\.sobel\._0019_
*817 gray_sobel0\.sobel0\.sobel\._0020_
*818 gray_sobel0\.sobel0\.sobel\._0021_
*819 gray_sobel0\.sobel0\.sobel\._0022_
*820 gray_sobel0\.sobel0\.sobel\._0023_
*821 gray_sobel0\.sobel0\.sobel\._0024_
*822 gray_sobel0\.sobel0\.sobel\._0025_
*823 gray_sobel0\.sobel0\.sobel\._0026_
*824 gray_sobel0\.sobel0\.sobel\._0027_
*825 gray_sobel0\.sobel0\.sobel\._0028_
*826 gray_sobel0\.sobel0\.sobel\._0029_
*827 gray_sobel0\.sobel0\.sobel\._0030_
*828 gray_sobel0\.sobel0\.sobel\._0031_
*829 gray_sobel0\.sobel0\.sobel\._0032_
*830 gray_sobel0\.sobel0\.sobel\._0033_
*831 gray_sobel0\.sobel0\.sobel\._0034_
*832 gray_sobel0\.sobel0\.sobel\._0035_
*833 gray_sobel0\.sobel0\.sobel\._0036_
*834 gray_sobel0\.sobel0\.sobel\._0037_
*835 gray_sobel0\.sobel0\.sobel\._0038_
*836 gray_sobel0\.sobel0\.sobel\._0039_
*837 gray_sobel0\.sobel0\.sobel\._0040_
*838 gray_sobel0\.sobel0\.sobel\._0041_
*839 gray_sobel0\.sobel0\.sobel\._0042_
*840 gray_sobel0\.sobel0\.sobel\._0043_
*841 gray_sobel0\.sobel0\.sobel\._0044_
*842 gray_sobel0\.sobel0\.sobel\._0045_
*843 gray_sobel0\.sobel0\.sobel\._0046_
*844 gray_sobel0\.sobel0\.sobel\._0047_
*845 gray_sobel0\.sobel0\.sobel\._0048_
*846 gray_sobel0\.sobel0\.sobel\._0049_
*847 gray_sobel0\.sobel0\.sobel\._0050_
*848 gray_sobel0\.sobel0\.sobel\._0051_
*849 gray_sobel0\.sobel0\.sobel\._0052_
*850 gray_sobel0\.sobel0\.sobel\._0053_
*851 gray_sobel0\.sobel0\.sobel\._0054_
*852 gray_sobel0\.sobel0\.sobel\._0055_
*853 gray_sobel0\.sobel0\.sobel\._0056_
*854 gray_sobel0\.sobel0\.sobel\._0057_
*855 gray_sobel0\.sobel0\.sobel\._0058_
*856 gray_sobel0\.sobel0\.sobel\._0059_
*857 gray_sobel0\.sobel0\.sobel\._0060_
*858 gray_sobel0\.sobel0\.sobel\._0061_
*859 gray_sobel0\.sobel0\.sobel\._0062_
*860 gray_sobel0\.sobel0\.sobel\._0063_
*861 gray_sobel0\.sobel0\.sobel\._0064_
*862 gray_sobel0\.sobel0\.sobel\._0065_
*863 gray_sobel0\.sobel0\.sobel\._0066_
*864 gray_sobel0\.sobel0\.sobel\._0067_
*865 gray_sobel0\.sobel0\.sobel\._0068_
*866 gray_sobel0\.sobel0\.sobel\._0069_
*867 gray_sobel0\.sobel0\.sobel\._0070_
*868 gray_sobel0\.sobel0\.sobel\._0071_
*869 gray_sobel0\.sobel0\.sobel\._0072_
*870 gray_sobel0\.sobel0\.sobel\._0073_
*871 gray_sobel0\.sobel0\.sobel\._0074_
*872 gray_sobel0\.sobel0\.sobel\._0075_
*873 gray_sobel0\.sobel0\.sobel\._0076_
*874 gray_sobel0\.sobel0\.sobel\._0077_
*875 gray_sobel0\.sobel0\.sobel\._0078_
*876 gray_sobel0\.sobel0\.sobel\._0079_
*877 gray_sobel0\.sobel0\.sobel\._0080_
*878 gray_sobel0\.sobel0\.sobel\._0081_
*879 gray_sobel0\.sobel0\.sobel\._0082_
*880 gray_sobel0\.sobel0\.sobel\._0083_
*881 gray_sobel0\.sobel0\.sobel\._0084_
*882 gray_sobel0\.sobel0\.sobel\._0085_
*883 gray_sobel0\.sobel0\.sobel\._0086_
*884 gray_sobel0\.sobel0\.sobel\._0087_
*885 gray_sobel0\.sobel0\.sobel\._0088_
*886 gray_sobel0\.sobel0\.sobel\._0089_
*887 gray_sobel0\.sobel0\.sobel\._0090_
*888 gray_sobel0\.sobel0\.sobel\._0091_
*889 gray_sobel0\.sobel0\.sobel\._0092_
*890 gray_sobel0\.sobel0\.sobel\._0093_
*891 gray_sobel0\.sobel0\.sobel\._0094_
*892 gray_sobel0\.sobel0\.sobel\._0095_
*893 gray_sobel0\.sobel0\.sobel\._0096_
*894 gray_sobel0\.sobel0\.sobel\._0097_
*895 gray_sobel0\.sobel0\.sobel\._0098_
*896 gray_sobel0\.sobel0\.sobel\._0099_
*897 gray_sobel0\.sobel0\.sobel\._0100_
*898 gray_sobel0\.sobel0\.sobel\._0101_
*899 gray_sobel0\.sobel0\.sobel\._0102_
*900 gray_sobel0\.sobel0\.sobel\._0103_
*901 gray_sobel0\.sobel0\.sobel\._0104_
*902 gray_sobel0\.sobel0\.sobel\._0105_
*903 gray_sobel0\.sobel0\.sobel\._0106_
*904 gray_sobel0\.sobel0\.sobel\._0107_
*905 gray_sobel0\.sobel0\.sobel\._0108_
*906 gray_sobel0\.sobel0\.sobel\._0109_
*907 gray_sobel0\.sobel0\.sobel\._0110_
*908 gray_sobel0\.sobel0\.sobel\._0111_
*909 gray_sobel0\.sobel0\.sobel\._0112_
*910 gray_sobel0\.sobel0\.sobel\._0113_
*911 gray_sobel0\.sobel0\.sobel\._0114_
*912 gray_sobel0\.sobel0\.sobel\._0115_
*913 gray_sobel0\.sobel0\.sobel\._0116_
*914 gray_sobel0\.sobel0\.sobel\._0117_
*915 gray_sobel0\.sobel0\.sobel\._0118_
*916 gray_sobel0\.sobel0\.sobel\._0119_
*917 gray_sobel0\.sobel0\.sobel\._0120_
*918 gray_sobel0\.sobel0\.sobel\._0121_
*919 gray_sobel0\.sobel0\.sobel\._0122_
*920 gray_sobel0\.sobel0\.sobel\._0123_
*921 gray_sobel0\.sobel0\.sobel\._0124_
*922 gray_sobel0\.sobel0\.sobel\._0125_
*923 gray_sobel0\.sobel0\.sobel\._0126_
*924 gray_sobel0\.sobel0\.sobel\._0127_
*925 gray_sobel0\.sobel0\.sobel\._0128_
*926 gray_sobel0\.sobel0\.sobel\._0129_
*927 gray_sobel0\.sobel0\.sobel\._0130_
*928 gray_sobel0\.sobel0\.sobel\._0131_
*929 gray_sobel0\.sobel0\.sobel\._0132_
*930 gray_sobel0\.sobel0\.sobel\._0133_
*931 gray_sobel0\.sobel0\.sobel\._0134_
*932 gray_sobel0\.sobel0\.sobel\._0135_
*933 gray_sobel0\.sobel0\.sobel\._0136_
*934 gray_sobel0\.sobel0\.sobel\._0137_
*935 gray_sobel0\.sobel0\.sobel\._0138_
*936 gray_sobel0\.sobel0\.sobel\._0139_
*937 gray_sobel0\.sobel0\.sobel\._0140_