*SPEF "ieee 1481-1999"
*DESIGN "tt_um_CDMA_Santiago"
*DATE "00:35:51 Wednesday April 10, 2024"
*VENDOR "The OpenROAD Project"
*PROGRAM "OpenROAD"
*VERSION "0889970d1790a2617e69f253221b8bd7626e51dc"
*DESIGN_FLOW "NAME_SCOPE LOCAL" "PIN_CAP NONE"
*DIVIDER /
*DELIMITER :
*BUS_DELIMITER []
*T_UNIT 1 NS
*C_UNIT 1 PF
*R_UNIT 1 OHM
*L_UNIT 1 HENRY

*NAME_MAP
*3 clk
*4 ena
*5 rst_n
*6 ui_in[0]
*7 ui_in[1]
*8 ui_in[2]
*9 ui_in[3]
*10 ui_in[4]
*11 ui_in[5]
*12 ui_in[6]
*13 ui_in[7]
*14 uio_in[0]
*15 uio_in[1]
*16 uio_in[2]
*17 uio_in[3]
*18 uio_in[4]
*19 uio_in[5]
*20 uio_in[6]
*21 uio_in[7]
*22 net22
*23 net23
*24 net24
*25 net25
*26 net26
*27 net27
*28 net28
*29 net29
*30 uio_out[0]
*31 uio_out[1]
*32 uio_out[2]
*33 uio_out[3]
*34 net10
*35 net11
*36 net12
*37 net13
*38 net14
*39 net15
*40 net16
*41 net17
*42 net18
*43 net19
*44 net20
*45 net21
*46 _00_
*47 _01_
*48 _02_
*49 _03_
*50 _04_
*51 _05_
*52 _06_
*53 _07_
*54 _08_
*55 _09_
*56 _10_
*57 _11_
*58 _12_
*59 _13_
*60 _14_
*61 _15_
*62 _16_
*63 cdma_U1\.cdma_o
*64 cdma_U1\.data1\[0\]
*65 cdma_U1\.data1\[1\]
*66 cdma_U1\.data1\[2\]
*67 cdma_U1\.data1\[3\]
*68 cdma_U1\.data1\[4\]
*69 cdma_U1\.data2\[0\]
*70 cdma_U1\.data2\[1\]
*71 cdma_U1\.data2\[2\]
*72 cdma_U1\.data2\[3\]
*73 cdma_U1\.data2\[4\]
*74 cdma_U1\.gold_o
*75 cdma_U1\.led_o
*76 cdma_U1\.mux1\[0\]
*77 cdma_U1\.mux1\[1\]
*78 cdma_U1\.mux1\[2\]
*79 cdma_U1\.mux1\[3\]
*80 cdma_U1\.mux1\[4\]
*81 cdma_U1\.mux2\[0\]
*82 cdma_U1\.mux2\[1\]
*83 cdma_U1\.mux2\[2\]
*84 cdma_U1\.mux2\[3\]
*85 cdma_U1\.mux2\[4\]
*86 cdma_U1\.receptor_o
*87 clknet_0_clk
*88 clknet_1_0__leaf_clk
*89 clknet_1_1__leaf_clk
*90 net1
*91 net2
*92 net3
*93 net30
*94 net31
*95 net32
*96 net33
*97 net34
*98 net35
*99 net36
*100 net4
*101 net5
*102 net6
*103 net7
*104 net8
*105 net9
*106 FILLER_0_0_109
*107 FILLER_0_0_113
*108 FILLER_0_0_125
*109 FILLER_0_0_137
*110 FILLER_0_0_141
*111 FILLER_0_0_15
*112 FILLER_0_0_153
*113 FILLER_0_0_165
*114 FILLER_0_0_169
*115 FILLER_0_0_181
*116 FILLER_0_0_193
*117 FILLER_0_0_197
*118 FILLER_0_0_209
*119 FILLER_0_0_221
*120 FILLER_0_0_225
*121 FILLER_0_0_237
*122 FILLER_0_0_249
*123 FILLER_0_0_253
*124 FILLER_0_0_265
*125 FILLER_0_0_27
*126 FILLER_0_0_277
*127 FILLER_0_0_281
*128 FILLER_0_0_29
*129 FILLER_0_0_293
*130 FILLER_0_0_3
*131 FILLER_0_0_305
*132 FILLER_0_0_309
*133 FILLER_0_0_321
*134 FILLER_0_0_333
*135 FILLER_0_0_41
*136 FILLER_0_0_53
*137 FILLER_0_0_57
*138 FILLER_0_0_69
*139 FILLER_0_0_81
*140 FILLER_0_0_85
*141 FILLER_0_0_97
*142 FILLER_0_10_109
*143 FILLER_0_10_121
*144 FILLER_0_10_133
*145 FILLER_0_10_139
*146 FILLER_0_10_141
*147 FILLER_0_10_15
*148 FILLER_0_10_153
*149 FILLER_0_10_165
*150 FILLER_0_10_177
*151 FILLER_0_10_189
*152 FILLER_0_10_195
*153 FILLER_0_10_197
*154 FILLER_0_10_209
*155 FILLER_0_10_221
*156 FILLER_0_10_233
*157 FILLER_0_10_245
*158 FILLER_0_10_251
*159 FILLER_0_10_253
*160 FILLER_0_10_265
*161 FILLER_0_10_27
*162 FILLER_0_10_277
*163 FILLER_0_10_289
*164 FILLER_0_10_29
*165 FILLER_0_10_3
*166 FILLER_0_10_301
*167 FILLER_0_10_307
*168 FILLER_0_10_309
*169 FILLER_0_10_321
*170 FILLER_0_10_333
*171 FILLER_0_10_41
*172 FILLER_0_10_53
*173 FILLER_0_10_65
*174 FILLER_0_10_77
*175 FILLER_0_10_83
*176 FILLER_0_10_85
*177 FILLER_0_10_97
*178 FILLER_0_11_105
*179 FILLER_0_11_111
*180 FILLER_0_11_113
*181 FILLER_0_11_125
*182 FILLER_0_11_137
*183 FILLER_0_11_149
*184 FILLER_0_11_15
*185 FILLER_0_11_161
*186 FILLER_0_11_167
*187 FILLER_0_11_169
*188 FILLER_0_11_181
*189 FILLER_0_11_193
*190 FILLER_0_11_205
*191 FILLER_0_11_217
*192 FILLER_0_11_223
*193 FILLER_0_11_225
*194 FILLER_0_11_237
*195 FILLER_0_11_249
*196 FILLER_0_11_261
*197 FILLER_0_11_27
*198 FILLER_0_11_273
*199 FILLER_0_11_279
*200 FILLER_0_11_281
*201 FILLER_0_11_293
*202 FILLER_0_11_3
*203 FILLER_0_11_305
*204 FILLER_0_11_317
*205 FILLER_0_11_329
*206 FILLER_0_11_39
*207 FILLER_0_11_51
*208 FILLER_0_11_55
*209 FILLER_0_11_57
*210 FILLER_0_11_69
*211 FILLER_0_11_81
*212 FILLER_0_11_93
*213 FILLER_0_12_109
*214 FILLER_0_12_121
*215 FILLER_0_12_133
*216 FILLER_0_12_139
*217 FILLER_0_12_141
*218 FILLER_0_12_15
*219 FILLER_0_12_153
*220 FILLER_0_12_165
*221 FILLER_0_12_177
*222 FILLER_0_12_189
*223 FILLER_0_12_195
*224 FILLER_0_12_197
*225 FILLER_0_12_209
*226 FILLER_0_12_221
*227 FILLER_0_12_233
*228 FILLER_0_12_245
*229 FILLER_0_12_251
*230 FILLER_0_12_253
*231 FILLER_0_12_265
*232 FILLER_0_12_27
*233 FILLER_0_12_277
*234 FILLER_0_12_289
*235 FILLER_0_12_29
*236 FILLER_0_12_3
*237 FILLER_0_12_301
*238 FILLER_0_12_307
*239 FILLER_0_12_309
*240 FILLER_0_12_321
*241 FILLER_0_12_333
*242 FILLER_0_12_41
*243 FILLER_0_12_53
*244 FILLER_0_12_65
*245 FILLER_0_12_77
*246 FILLER_0_12_83
*247 FILLER_0_12_85
*248 FILLER_0_12_97
*249 FILLER_0_13_105
*250 FILLER_0_13_111
*251 FILLER_0_13_113
*252 FILLER_0_13_125
*253 FILLER_0_13_137
*254 FILLER_0_13_149
*255 FILLER_0_13_15
*256 FILLER_0_13_161
*257 FILLER_0_13_167
*258 FILLER_0_13_169
*259 FILLER_0_13_181
*260 FILLER_0_13_193
*261 FILLER_0_13_205
*262 FILLER_0_13_217
*263 FILLER_0_13_223
*264 FILLER_0_13_225
*265 FILLER_0_13_237
*266 FILLER_0_13_249
*267 FILLER_0_13_261
*268 FILLER_0_13_27
*269 FILLER_0_13_273
*270 FILLER_0_13_279
*271 FILLER_0_13_281
*272 FILLER_0_13_293
*273 FILLER_0_13_3
*274 FILLER_0_13_305
*275 FILLER_0_13_317
*276 FILLER_0_13_329
*277 FILLER_0_13_39
*278 FILLER_0_13_51
*279 FILLER_0_13_55
*280 FILLER_0_13_57
*281 FILLER_0_13_69
*282 FILLER_0_13_81
*283 FILLER_0_13_93
*284 FILLER_0_14_109
*285 FILLER_0_14_121
*286 FILLER_0_14_133
*287 FILLER_0_14_139
*288 FILLER_0_14_141
*289 FILLER_0_14_15
*290 FILLER_0_14_153
*291 FILLER_0_14_165
*292 FILLER_0_14_177
*293 FILLER_0_14_189
*294 FILLER_0_14_195
*295 FILLER_0_14_197
*296 FILLER_0_14_209
*297 FILLER_0_14_221
*298 FILLER_0_14_233
*299 FILLER_0_14_245
*300 FILLER_0_14_251
*301 FILLER_0_14_253
*302 FILLER_0_14_265
*303 FILLER_0_14_27
*304 FILLER_0_14_277
*305 FILLER_0_14_289
*306 FILLER_0_14_29
*307 FILLER_0_14_3
*308 FILLER_0_14_301
*309 FILLER_0_14_307
*310 FILLER_0_14_309
*311 FILLER_0_14_321
*312 FILLER_0_14_333
*313 FILLER_0_14_41
*314 FILLER_0_14_53
*315 FILLER_0_14_65
*316 FILLER_0_14_77
*317 FILLER_0_14_83
*318 FILLER_0_14_85
*319 FILLER_0_14_97
*320 FILLER_0_15_105
*321 FILLER_0_15_111
*322 FILLER_0_15_113
*323 FILLER_0_15_125
*324 FILLER_0_15_137
*325 FILLER_0_15_149
*326 FILLER_0_15_15
*327 FILLER_0_15_161
*328 FILLER_0_15_167
*329 FILLER_0_15_169
*330 FILLER_0_15_181
*331 FILLER_0_15_193
*332 FILLER_0_15_205
*333 FILLER_0_15_217
*334 FILLER_0_15_223
*335 FILLER_0_15_225
*336 FILLER_0_15_237
*337 FILLER_0_15_249
*338 FILLER_0_15_261
*339 FILLER_0_15_27
*340 FILLER_0_15_273
*341 FILLER_0_15_279
*342 FILLER_0_15_281
*343 FILLER_0_15_293
*344 FILLER_0_15_3
*345 FILLER_0_15_305
*346 FILLER_0_15_317
*347 FILLER_0_15_329
*348 FILLER_0_15_39
*349 FILLER_0_15_51
*350 FILLER_0_15_55
*351 FILLER_0_15_57
*352 FILLER_0_15_69
*353 FILLER_0_15_81
*354 FILLER_0_15_93
*355 FILLER_0_16_109
*356 FILLER_0_16_121
*357 FILLER_0_16_133
*358 FILLER_0_16_139
*359 FILLER_0_16_141
*360 FILLER_0_16_15
*361 FILLER_0_16_153
*362 FILLER_0_16_165
*363 FILLER_0_16_177
*364 FILLER_0_16_189
*365 FILLER_0_16_195
*366 FILLER_0_16_197
*367 FILLER_0_16_209
*368 FILLER_0_16_221
*369 FILLER_0_16_233
*370 FILLER_0_16_245
*371 FILLER_0_16_251
*372 FILLER_0_16_253
*373 FILLER_0_16_265
*374 FILLER_0_16_27
*375 FILLER_0_16_277
*376 FILLER_0_16_289
*377 FILLER_0_16_29
*378 FILLER_0_16_3
*379 FILLER_0_16_301
*380 FILLER_0_16_307
*381 FILLER_0_16_309
*382 FILLER_0_16_321
*383 FILLER_0_16_333
*384 FILLER_0_16_41
*385 FILLER_0_16_53
*386 FILLER_0_16_65
*387 FILLER_0_16_77
*388 FILLER_0_16_83
*389 FILLER_0_16_85
*390 FILLER_0_16_97
*391 FILLER_0_17_105
*392 FILLER_0_17_111
*393 FILLER_0_17_113
*394 FILLER_0_17_125
*395 FILLER_0_17_137
*396 FILLER_0_17_149
*397 FILLER_0_17_15
*398 FILLER_0_17_161
*399 FILLER_0_17_167
*400 FILLER_0_17_169
*401 FILLER_0_17_181
*402 FILLER_0_17_193
*403 FILLER_0_17_205
*404 FILLER_0_17_217
*405 FILLER_0_17_223
*406 FILLER_0_17_225
*407 FILLER_0_17_237
*408 FILLER_0_17_249
*409 FILLER_0_17_261
*410 FILLER_0_17_27
*411 FILLER_0_17_273
*412 FILLER_0_17_279
*413 FILLER_0_17_281
*414 FILLER_0_17_293
*415 FILLER_0_17_3
*416 FILLER_0_17_305
*417 FILLER_0_17_317
*418 FILLER_0_17_329
*419 FILLER_0_17_39
*420 FILLER_0_17_51
*421 FILLER_0_17_55
*422 FILLER_0_17_57
*423 FILLER_0_17_69
*424 FILLER_0_17_81
*425 FILLER_0_17_93
*426 FILLER_0_18_109
*427 FILLER_0_18_121
*428 FILLER_0_18_133
*429 FILLER_0_18_139
*430 FILLER_0_18_141
*431 FILLER_0_18_15
*432 FILLER_0_18_153
*433 FILLER_0_18_165
*434 FILLER_0_18_177
*435 FILLER_0_18_189
*436 FILLER_0_18_195
*437 FILLER_0_18_197
*438 FILLER_0_18_209
*439 FILLER_0_18_221
*440 FILLER_0_18_233
*441 FILLER_0_18_245
*442 FILLER_0_18_251
*443 FILLER_0_18_253
*444 FILLER_0_18_265
*445 FILLER_0_18_27
*446 FILLER_0_18_277
*447 FILLER_0_18_289
*448 FILLER_0_18_29
*449 FILLER_0_18_3
*450 FILLER_0_18_301
*451 FILLER_0_18_307
*452 FILLER_0_18_309
*453 FILLER_0_18_321
*454 FILLER_0_18_333
*455 FILLER_0_18_41
*456 FILLER_0_18_53
*457 FILLER_0_18_65
*458 FILLER_0_18_77
*459 FILLER_0_18_83
*460 FILLER_0_18_85
*461 FILLER_0_18_97
*462 FILLER_0_19_105
*463 FILLER_0_19_111
*464 FILLER_0_19_113
*465 FILLER_0_19_125
*466 FILLER_0_19_137
*467 FILLER_0_19_149
*468 FILLER_0_19_15
*469 FILLER_0_19_161
*470 FILLER_0_19_167
*471 FILLER_0_19_169
*472 FILLER_0_19_181
*473 FILLER_0_19_193
*474 FILLER_0_19_205
*475 FILLER_0_19_217
*476 FILLER_0_19_223
*477 FILLER_0_19_225
*478 FILLER_0_19_237
*479 FILLER_0_19_249
*480 FILLER_0_19_261
*481 FILLER_0_19_27
*482 FILLER_0_19_273
*483 FILLER_0_19_279
*484 FILLER_0_19_281
*485 FILLER_0_19_293
*486 FILLER_0_19_3
*487 FILLER_0_19_305
*488 FILLER_0_19_317
*489 FILLER_0_19_329
*490 FILLER_0_19_39
*491 FILLER_0_19_51
*492 FILLER_0_19_55
*493 FILLER_0_19_57
*494 FILLER_0_19_69
*495 FILLER_0_19_81
*496 FILLER_0_19_93
*497 FILLER_0_1_105
*498 FILLER_0_1_111
*499 FILLER_0_1_113
*500 FILLER_0_1_125
*501 FILLER_0_1_137
*502 FILLER_0_1_149
*503 FILLER_0_1_15
*504 FILLER_0_1_161
*505 FILLER_0_1_167
*506 FILLER_0_1_169
*507 FILLER_0_1_181
*508 FILLER_0_1_193
*509 FILLER_0_1_205
*510 FILLER_0_1_217
*511 FILLER_0_1_223
*512 FILLER_0_1_225
*513 FILLER_0_1_237
*514 FILLER_0_1_249
*515 FILLER_0_1_261
*516 FILLER_0_1_27
*517 FILLER_0_1_273
*518 FILLER_0_1_279
*519 FILLER_0_1_281
*520 FILLER_0_1_293
*521 FILLER_0_1_3
*522 FILLER_0_1_305
*523 FILLER_0_1_317
*524 FILLER_0_1_329
*525 FILLER_0_1_39
*526 FILLER_0_1_51
*527 FILLER_0_1_55
*528 FILLER_0_1_57
*529 FILLER_0_1_69
*530 FILLER_0_1_81
*531 FILLER_0_1_93
*532 FILLER_0_20_109
*533 FILLER_0_20_121
*534 FILLER_0_20_133
*535 FILLER_0_20_139
*536 FILLER_0_20_141
*537 FILLER_0_20_15
*538 FILLER_0_20_153
*539 FILLER_0_20_165
*540 FILLER_0_20_177
*541 FILLER_0_20_189
*542 FILLER_0_20_195
*543 FILLER_0_20_197
*544 FILLER_0_20_209
*545 FILLER_0_20_221
*546 FILLER_0_20_233
*547 FILLER_0_20_245
*548 FILLER_0_20_251
*549 FILLER_0_20_253
*550 FILLER_0_20_265
*551 FILLER_0_20_27
*552 FILLER_0_20_277
*553 FILLER_0_20_289
*554 FILLER_0_20_29
*555 FILLER_0_20_3
*556 FILLER_0_20_301
*557 FILLER_0_20_307
*558 FILLER_0_20_309
*559 FILLER_0_20_321
*560 FILLER_0_20_333
*561 FILLER_0_20_41
*562 FILLER_0_20_53
*563 FILLER_0_20_65
*564 FILLER_0_20_77
*565 FILLER_0_20_83
*566 FILLER_0_20_85
*567 FILLER_0_20_97
*568 FILLER_0_21_105
*569 FILLER_0_21_111
*570 FILLER_0_21_113
*571 FILLER_0_21_125
*572 FILLER_0_21_137
*573 FILLER_0_21_149
*574 FILLER_0_21_15
*575 FILLER_0_21_161
*576 FILLER_0_21_167
*577 FILLER_0_21_169
*578 FILLER_0_21_181
*579 FILLER_0_21_193
*580 FILLER_0_21_205
*581 FILLER_0_21_217
*582 FILLER_0_21_223
*583 FILLER_0_21_225
*584 FILLER_0_21_237
*585 FILLER_0_21_249
*586 FILLER_0_21_261
*587 FILLER_0_21_27
*588 FILLER_0_21_273
*589 FILLER_0_21_279
*590 FILLER_0_21_281
*591 FILLER_0_21_293
*592 FILLER_0_21_3
*593 FILLER_0_21_305
*594 FILLER_0_21_317
*595 FILLER_0_21_329
*596 FILLER_0_21_39
*597 FILLER_0_21_51
*598 FILLER_0_21_55
*599 FILLER_0_21_57
*600 FILLER_0_21_69
*601 FILLER_0_21_81
*602 FILLER_0_21_93
*603 FILLER_0_22_109
*604 FILLER_0_22_121
*605 FILLER_0_22_133
*606 FILLER_0_22_139
*607 FILLER_0_22_141
*608 FILLER_0_22_15
*609 FILLER_0_22_153
*610 FILLER_0_22_165
*611 FILLER_0_22_177
*612 FILLER_0_22_189
*613 FILLER_0_22_195
*614 FILLER_0_22_197
*615 FILLER_0_22_209
*616 FILLER_0_22_221
*617 FILLER_0_22_233
*618 FILLER_0_22_245
*619 FILLER_0_22_251
*620 FILLER_0_22_253
*621 FILLER_0_22_265
*622 FILLER_0_22_27
*623 FILLER_0_22_277
*624 FILLER_0_22_289
*625 FILLER_0_22_29
*626 FILLER_0_22_3
*627 FILLER_0_22_301
*628 FILLER_0_22_307
*629 FILLER_0_22_309
*630 FILLER_0_22_321
*631 FILLER_0_22_333
*632 FILLER_0_22_41
*633 FILLER_0_22_53
*634 FILLER_0_22_65
*635 FILLER_0_22_77
*636 FILLER_0_22_83
*637 FILLER_0_22_85
*638 FILLER_0_22_97
*639 FILLER_0_23_105
*640 FILLER_0_23_111
*641 FILLER_0_23_113
*642 FILLER_0_23_125
*643 FILLER_0_23_137
*644 FILLER_0_23_149
*645 FILLER_0_23_15
*646 FILLER_0_23_161
*647 FILLER_0_23_167
*648 FILLER_0_23_169
*649 FILLER_0_23_181
*650 FILLER_0_23_193
*651 FILLER_0_23_205
*652 FILLER_0_23_217
*653 FILLER_0_23_223
*654 FILLER_0_23_225
*655 FILLER_0_23_237
*656 FILLER_0_23_249
*657 FILLER_0_23_261
*658 FILLER_0_23_27
*659 FILLER_0_23_273
*660 FILLER_0_23_279
*661 FILLER_0_23_281
*662 FILLER_0_23_293
*663 FILLER_0_23_3
*664 FILLER_0_23_305
*665 FILLER_0_23_317
*666 FILLER_0_23_329
*667 FILLER_0_23_39
*668 FILLER_0_23_51
*669 FILLER_0_23_55
*670 FILLER_0_23_57
*671 FILLER_0_23_69
*672 FILLER_0_23_81
*673 FILLER_0_23_93
*674 FILLER_0_24_109
*675 FILLER_0_24_121
*676 FILLER_0_24_133
*677 FILLER_0_24_139
*678 FILLER_0_24_141
*679 FILLER_0_24_15
*680 FILLER_0_24_153
*681 FILLER_0_24_165
*682 FILLER_0_24_177
*683 FILLER_0_24_189
*684 FILLER_0_24_195
*685 FILLER_0_24_197
*686 FILLER_0_24_209
*687 FILLER_0_24_221
*688 FILLER_0_24_233
*689 FILLER_0_24_245
*690 FILLER_0_24_251
*691 FILLER_0_24_253
*692 FILLER_0_24_265
*693 FILLER_0_24_27
*694 FILLER_0_24_277
*695 FILLER_0_24_289
*696 FILLER_0_24_29
*697 FILLER_0_24_3
*698 FILLER_0_24_301
*699 FILLER_0_24_307
*700 FILLER_0_24_309
*701 FILLER_0_24_321
*702 FILLER_0_24_333
*703 FILLER_0_24_41
*704 FILLER_0_24_53
*705 FILLER_0_24_65
*706 FILLER_0_24_77
*707 FILLER_0_24_83
*708 FILLER_0_24_85
*709 FILLER_0_24_97
*710 FILLER_0_25_105
*711 FILLER_0_25_111
*712 FILLER_0_25_113
*713 FILLER_0_25_125
*714 FILLER_0_25_137
*715 FILLER_0_25_149
*716 FILLER_0_25_15
*717 FILLER_0_25_161
*718 FILLER_0_25_167
*719 FILLER_0_25_169
*720 FILLER_0_25_181
*721 FILLER_0_25_193
*722 FILLER_0_25_205
*723 FILLER_0_25_217
*724 FILLER_0_25_223
*725 FILLER_0_25_225
*726 FILLER_0_25_237
*727 FILLER_0_25_249
*728 FILLER_0_25_261
*729 FILLER_0_25_27
*730 FILLER_0_25_273
*731 FILLER_0_25_279
*732 FILLER_0_25_281
*733 FILLER_0_25_293
*734 FILLER_0_25_3
*735 FILLER_0_25_305
*736 FILLER_0_25_317
*737 FILLER_0_25_329
*738 FILLER_0_25_39
*739 FILLER_0_25_51
*740 FILLER_0_25_55
*741 FILLER_0_25_57
*742 FILLER_0_25_69
*743 FILLER_0_25_81
*744 FILLER_0_25_93
*745 FILLER_0_26_109
*746 FILLER_0_26_121
*747 FILLER_0_26_133
*748 FILLER_0_26_139
*749 FILLER_0_26_141
*750 FILLER_0_26_15
*751 FILLER_0_26_153
*752 FILLER_0_26_165
*753 FILLER_0_26_177
*754 FILLER_0_26_189
*755 FILLER_0_26_195
*756 FILLER_0_26_197
*757 FILLER_0_26_209
*758 FILLER_0_26_221
*759 FILLER_0_26_233
*760 FILLER_0_26_245
*761 FILLER_0_26_251
*762 FILLER_0_26_253
*763 FILLER_0_26_265
*764 FILLER_0_26_27
*765 FILLER_0_26_277
*766 FILLER_0_26_289
*767 FILLER_0_26_29
*768 FILLER_0_26_3
*769 FILLER_0_26_301
*770 FILLER_0_26_307
*771 FILLER_0_26_309
*772 FILLER_0_26_321
*773 FILLER_0_26_333
*774 FILLER_0_26_41
*775 FILLER_0_26_53
*776 FILLER_0_26_65
*777 FILLER_0_26_77
*778 FILLER_0_26_83
*779 FILLER_0_26_85
*780 FILLER_0_26_97
*781 FILLER_0_27_105
*782 FILLER_0_27_111
*783 FILLER_0_27_113
*784 FILLER_0_27_125
*785 FILLER_0_27_137
*786 FILLER_0_27_149
*787 FILLER_0_27_15
*788 FILLER_0_27_161
*789 FILLER_0_27_167
*790 FILLER_0_27_169
*791 FILLER_0_27_181
*792 FILLER_0_27_193
*793 FILLER_0_27_205
*794 FILLER_0_27_217
*795 FILLER_0_27_223
*796 FILLER_0_27_225
*797 FILLER_0_27_237
*798 FILLER_0_27_249
*799 FILLER_0_27_261
*800 FILLER_0_27_27
*801 FILLER_0_27_273
*802 FILLER_0_27_279
*803 FILLER_0_27_281
*804 FILLER_0_27_293
*805 FILLER_0_27_3
*806 FILLER_0_27_305
*807 FILLER_0_27_317
*808 FILLER_0_27_329
*809 FILLER_0_27_39
*810 FILLER_0_27_51
*811 FILLER_0_27_55
*812 FILLER_0_27_57
*813 FILLER_0_27_69
*814 FILLER_0_27_81
*815 FILLER_0_27_93
*816 FILLER_0_28_109
*817 FILLER_0_28_121
*818 FILLER_0_28_133
*819 FILLER_0_28_139
*820 FILLER_0_28_141
*821 FILLER_0_28_15
*822 FILLER_0_28_153
*823 FILLER_0_28_165
*824 FILLER_0_28_177
*825 FILLER_0_28_189
*826 FILLER_0_28_195
*827 FILLER_0_28_197
*828 FILLER_0_28_209
*829 FILLER_0_28_221
*830 FILLER_0_28_233
*831 FILLER_0_28_245
*832 FILLER_0_28_251
*833 FILLER_0_28_253
*834 FILLER_0_28_265
*835 FILLER_0_28_27
*836 FILLER_0_28_277
*837 FILLER_0_28_289
*838 FILLER_0_28_29
*839 FILLER_0_28_3
*840 FILLER_0_28_301
*841 FILLER_0_28_307
*842 FILLER_0_28_309
*843 FILLER_0_28_321
*844 FILLER_0_28_333
*845 FILLER_0_28_41
*846 FILLER_0_28_53
*847 FILLER_0_28_65
*848 FILLER_0_28_77
*849 FILLER_0_28_83
*850 FILLER_0_28_85
*851 FILLER_0_28_97
*852 FILLER_0_29_105
*853 FILLER_0_29_111
*854 FILLER_0_29_113
*855 FILLER_0_29_125
*856 FILLER_0_29_137
*857 FILLER_0_29_149
*858 FILLER_0_29_15
*859 FILLER_0_29_161
*860 FILLER_0_29_167
*861 FILLER_0_29_169
*862 FILLER_0_29_181
*863 FILLER_0_29_193
*864 FILLER_0_29_205
*865 FILLER_0_29_217
*866 FILLER_0_29_223
*867 FILLER_0_29_225
*868 FILLER_0_29_237
*869 FILLER_0_29_249
*870 FILLER_0_29_261
*871 FILLER_0_29_27
*872 FILLER_0_29_273
*873 FILLER_0_29_279
*874 FILLER_0_29_281
*875 FILLER_0_29_293
*876 FILLER_0_29_3
*877 FILLER_0_29_305
*878 FILLER_0_29_317
*879 FILLER_0_29_329
*880 FILLER_0_29_39
*881 FILLER_0_29_51
*882 FILLER_0_29_55
*883 FILLER_0_29_57
*884 FILLER_0_29_69
*885 FILLER_0_29_81
*886 FILLER_0_29_93
*887 FILLER_0_2_109
*888 FILLER_0_2_121
*889 FILLER_0_2_133
*890 FILLER_0_2_139
*891 FILLER_0_2_141
*892 FILLER_0_2_15
*893 FILLER_0_2_153
*894 FILLER_0_2_165
*895 FILLER_0_2_177
*896 FILLER_0_2_189
*897 FILLER_0_2_195
*898 FILLER_0_2_197
*899 FILLER_0_2_209
*900 FILLER_0_2_221
*901 FILLER_0_2_233
*902 FILLER_0_2_245
*903 FILLER_0_2_251
*904 FILLER_0_2_253
*905 FILLER_0_2_265
*906 FILLER_0_2_27
*907 FILLER_0_2_277
*908 FILLER_0_2_289
*909 FILLER_0_2_29
*910 FILLER_0_2_3
*911 FILLER_0_2_301
*912 FILLER_0_2_307
*913 FILLER_0_2_309
*914 FILLER_0_2_321
*915 FILLER_0_2_333
*916 FILLER_0_2_41
*917 FILLER_0_2_53
*918 FILLER_0_2_65
*919 FILLER_0_2_77
*920 FILLER_0_2_83
*921 FILLER_0_2_85
*922 FILLER_0_2_97
*923 FILLER_0_30_109
*924 FILLER_0_30_121
*925 FILLER_0_30_133
*926 FILLER_0_30_139
*927 FILLER_0_30_141
*928 FILLER_0_30_15
*929 FILLER_0_30_153
*930 FILLER_0_30_165
*931 FILLER_0_30_177
*932 FILLER_0_30_189
*933 FILLER_0_30_195
*934 FILLER_0_30_197
*935 FILLER_0_30_209
*936 FILLER_0_30_221
*937 FILLER_0_30_233
*938 FILLER_0_30_245
*939 FILLER_0_30_251
*940 FILLER_0_30_253
*941 FILLER_0_30_265
*942 FILLER_0_30_27
*943 FILLER_0_30_277
*944 FILLER_0_30_289
*945 FILLER_0_30_29
*946 FILLER_0_30_3
*947 FILLER_0_30_301
*948 FILLER_0_30_307
*949 FILLER_0_30_309
*950 FILLER_0_30_321
*951 FILLER_0_30_333
*952 FILLER_0_30_41
*953 FILLER_0_30_53
*954 FILLER_0_30_65
*955 FILLER_0_30_77
*956 FILLER_0_30_83
*957 FILLER_0_30_85
*958 FILLER_0_30_97
*959 FILLER_0_31_105
*960 FILLER_0_31_111
*961 FILLER_0_31_113
*962 FILLER_0_31_125
*963 FILLER_0_31_137
*964 FILLER_0_31_149
*965 FILLER_0_31_15
*966 FILLER_0_31_161
*967 FILLER_0_31_167
*968 FILLER_0_31_169
*969 FILLER_0_31_181
*970 FILLER_0_31_193
*971 FILLER_0_31_205
*972 FILLER_0_31_217
*973 FILLER_0_31_223
*974 FILLER_0_31_225
*975 FILLER_0_31_237
*976 FILLER_0_31_249
*977 FILLER_0_31_261
*978 FILLER_0_31_27
*979 FILLER_0_31_273
*980 FILLER_0_31_279
*981 FILLER_0_31_281
*982 FILLER_0_31_293
*983 FILLER_0_31_3
*984 FILLER_0_31_305
*985 FILLER_0_31_317
*986 FILLER_0_31_329
*987 FILLER_0_31_39
*988 FILLER_0_31_51
*989 FILLER_0_31_55
*990 FILLER_0_31_57
*991 FILLER_0_31_69
*992 FILLER_0_31_81
*993 FILLER_0_31_93
*994 FILLER_0_32_109
*995 FILLER_0_32_121
*996 FILLER_0_32_133
*997 FILLER_0_32_139
*998 FILLER_0_32_141
*999 FILLER_0_32_15
*1000 FILLER_0_32_153
*1001 FILLER_0_32_165
*1002 FILLER_0_32_177
*1003 FILLER_0_32_189
*1004 FILLER_0_32_195
*1005 FILLER_0_32_197
*1006 FILLER_0_32_209
*1007 FILLER_0_32_221
*1008 FILLER_0_32_233
*1009 FILLER_0_32_245
*1010 FILLER_0_32_251
*1011 FILLER_0_32_253
*1012 FILLER_0_32_265
*1013 FILLER_0_32_27
*1014 FILLER_0_32_277
*1015 FILLER_0_32_289
*1016 FILLER_0_32_29
*1017 FILLER_0_32_3
*1018 FILLER_0_32_301
*1019 FILLER_0_32_307
*1020 FILLER_0_32_309
*1021 FILLER_0_32_321
*1022 FILLER_0_32_333
*1023 FILLER_0_32_41
*1024 FILLER_0_32_53
*1025 FILLER_0_32_65
*1026 FILLER_0_32_77
*1027 FILLER_0_32_83
*1028 FILLER_0_32_85
*1029 FILLER_0_32_97
*1030 FILLER_0_33_105
*1031 FILLER_0_33_111
*1032 FILLER_0_33_113
*1033 FILLER_0_33_125
*1034 FILLER_0_33_137
*1035 FILLER_0_33_149
*1036 FILLER_0_33_15
*1037 FILLER_0_33_161
*1038 FILLER_0_33_167
*1039 FILLER_0_33_169
*1040 FILLER_0_33_181
*1041 FILLER_0_33_193
*1042 FILLER_0_33_205
*1043 FILLER_0_33_217
*1044 FILLER_0_33_223
*1045 FILLER_0_33_225
*1046 FILLER_0_33_237
*1047 FILLER_0_33_249
*1048 FILLER_0_33_261
*1049 FILLER_0_33_27
*1050 FILLER_0_33_272
*1051 FILLER_0_33_284
*1052 FILLER_0_33_296
*1053 FILLER_0_33_3
*1054 FILLER_0_33_312
*1055 FILLER_0_33_324
*1056 FILLER_0_33_332
*1057 FILLER_0_33_39
*1058 FILLER_0_33_51
*1059 FILLER_0_33_55
*1060 FILLER_0_33_57
*1061 FILLER_0_33_69
*1062 FILLER_0_33_81
*1063 FILLER_0_33_93
*1064 FILLER_0_34_109
*1065 FILLER_0_34_121
*1066 FILLER_0_34_133
*1067 FILLER_0_34_139
*1068 FILLER_0_34_141
*1069 FILLER_0_34_15
*1070 FILLER_0_34_153
*1071 FILLER_0_34_165
*1072 FILLER_0_34_177
*1073 FILLER_0_34_189
*1074 FILLER_0_34_195
*1075 FILLER_0_34_197
*1076 FILLER_0_34_209
*1077 FILLER_0_34_221
*1078 FILLER_0_34_250
*1079 FILLER_0_34_253
*1080 FILLER_0_34_27
*1081 FILLER_0_34_29
*1082 FILLER_0_34_292
*1083 FILLER_0_34_3
*1084 FILLER_0_34_306
*1085 FILLER_0_34_41
*1086 FILLER_0_34_53
*1087 FILLER_0_34_65
*1088 FILLER_0_34_77
*1089 FILLER_0_34_83
*1090 FILLER_0_34_85
*1091 FILLER_0_34_97
*1092 FILLER_0_35_105
*1093 FILLER_0_35_111
*1094 FILLER_0_35_113
*1095 FILLER_0_35_125
*1096 FILLER_0_35_137
*1097 FILLER_0_35_149
*1098 FILLER_0_35_15
*1099 FILLER_0_35_161
*1100 FILLER_0_35_167
*1101 FILLER_0_35_169
*1102 FILLER_0_35_181
*1103 FILLER_0_35_193
*1104 FILLER_0_35_205
*1105 FILLER_0_35_217
*1106 FILLER_0_35_223
*1107 FILLER_0_35_252
*1108 FILLER_0_35_262
*1109 FILLER_0_35_27
*1110 FILLER_0_35_278
*1111 FILLER_0_35_296
*1112 FILLER_0_35_3
*1113 FILLER_0_35_334
*1114 FILLER_0_35_39
*1115 FILLER_0_35_51
*1116 FILLER_0_35_55
*1117 FILLER_0_35_57
*1118 FILLER_0_35_69
*1119 FILLER_0_35_81
*1120 FILLER_0_35_93
*1121 FILLER_0_36_109
*1122 FILLER_0_36_121
*1123 FILLER_0_36_133
*1124 FILLER_0_36_139
*1125 FILLER_0_36_141
*1126 FILLER_0_36_15
*1127 FILLER_0_36_153
*1128 FILLER_0_36_165
*1129 FILLER_0_36_177
*1130 FILLER_0_36_189
*1131 FILLER_0_36_195
*1132 FILLER_0_36_197
*1133 FILLER_0_36_209
*1134 FILLER_0_36_221
*1135 FILLER_0_36_225
*1136 FILLER_0_36_249
*1137 FILLER_0_36_27
*1138 FILLER_0_36_273
*1139 FILLER_0_36_29
*1140 FILLER_0_36_298
*1141 FILLER_0_36_3
*1142 FILLER_0_36_41
*1143 FILLER_0_36_53
*1144 FILLER_0_36_65
*1145 FILLER_0_36_77
*1146 FILLER_0_36_83
*1147 FILLER_0_36_85
*1148 FILLER_0_36_97
*1149 FILLER_0_37_105
*1150 FILLER_0_37_110
*1151 FILLER_0_37_113
*1152 FILLER_0_37_119
*1153 FILLER_0_37_124
*1154 FILLER_0_37_141
*1155 FILLER_0_37_15
*1156 FILLER_0_37_153
*1157 FILLER_0_37_165
*1158 FILLER_0_37_169
*1159 FILLER_0_37_181
*1160 FILLER_0_37_193
*1161 FILLER_0_37_207
*1162 FILLER_0_37_219
*1163 FILLER_0_37_255
*1164 FILLER_0_37_27
*1165 FILLER_0_37_3
*1166 FILLER_0_37_333
*1167 FILLER_0_37_39
*1168 FILLER_0_37_51
*1169 FILLER_0_37_55
*1170 FILLER_0_37_57
*1171 FILLER_0_37_69
*1172 FILLER_0_37_81
*1173 FILLER_0_37_93
*1174 FILLER_0_38_10
*1175 FILLER_0_38_106
*1176 FILLER_0_38_113
*1177 FILLER_0_38_125
*1178 FILLER_0_38_134
*1179 FILLER_0_38_14
*1180 FILLER_0_38_144
*1181 FILLER_0_38_150
*1182 FILLER_0_38_154
*1183 FILLER_0_38_158
*1184 FILLER_0_38_162
*1185 FILLER_0_38_166
*1186 FILLER_0_38_169
*1187 FILLER_0_38_174
*1188 FILLER_0_38_178
*1189 FILLER_0_38_18
*1190 FILLER_0_38_182
*1191 FILLER_0_38_186
*1192 FILLER_0_38_190
*1193 FILLER_0_38_197
*1194 FILLER_0_38_209
*1195 FILLER_0_38_22
*1196 FILLER_0_38_221
*1197 FILLER_0_38_225
*1198 FILLER_0_38_245
*1199 FILLER_0_38_278
*1200 FILLER_0_38_289
*1201 FILLER_0_38_309
*1202 FILLER_0_38_32
*1203 FILLER_0_38_334
*1204 FILLER_0_38_38
*1205 FILLER_0_38_42
*1206 FILLER_0_38_46
*1207 FILLER_0_38_50
*1208 FILLER_0_38_54
*1209 FILLER_0_38_57
*1210 FILLER_0_38_6
*1211 FILLER_0_38_62
*1212 FILLER_0_38_66
*1213 FILLER_0_38_70
*1214 FILLER_0_38_74
*1215 FILLER_0_38_78
*1216 FILLER_0_38_88
*1217 FILLER_0_38_94
*1218 FILLER_0_3_105
*1219 FILLER_0_3_111
*1220 FILLER_0_3_113
*1221 FILLER_0_3_125
*1222 FILLER_0_3_137
*1223 FILLER_0_3_149
*1224 FILLER_0_3_15
*1225 FILLER_0_3_161
*1226 FILLER_0_3_167
*1227 FILLER_0_3_169
*1228 FILLER_0_3_181
*1229 FILLER_0_3_193
*1230 FILLER_0_3_205
*1231 FILLER_0_3_217
*1232 FILLER_0_3_223
*1233 FILLER_0_3_225
*1234 FILLER_0_3_237
*1235 FILLER_0_3_249
*1236 FILLER_0_3_261
*1237 FILLER_0_3_27
*1238 FILLER_0_3_273
*1239 FILLER_0_3_279
*1240 FILLER_0_3_281
*1241 FILLER_0_3_293
*1242 FILLER_0_3_3
*1243 FILLER_0_3_305
*1244 FILLER_0_3_317
*1245 FILLER_0_3_329
*1246 FILLER_0_3_39
*1247 FILLER_0_3_51
*1248 FILLER_0_3_55
*1249 FILLER_0_3_57
*1250 FILLER_0_3_69
*1251 FILLER_0_3_81
*1252 FILLER_0_3_93
*1253 FILLER_0_4_109
*1254 FILLER_0_4_121
*1255 FILLER_0_4_133
*1256 FILLER_0_4_139
*1257 FILLER_0_4_141
*1258 FILLER_0_4_15
*1259 FILLER_0_4_153
*1260 FILLER_0_4_165
*1261 FILLER_0_4_177
*1262 FILLER_0_4_189
*1263 FILLER_0_4_195
*1264 FILLER_0_4_197
*1265 FILLER_0_4_209
*1266 FILLER_0_4_221
*1267 FILLER_0_4_233
*1268 FILLER_0_4_245
*1269 FILLER_0_4_251
*1270 FILLER_0_4_253
*1271 FILLER_0_4_265
*1272 FILLER_0_4_27
*1273 FILLER_0_4_277
*1274 FILLER_0_4_289
*1275 FILLER_0_4_29
*1276 FILLER_0_4_3
*1277 FILLER_0_4_301
*1278 FILLER_0_4_307
*1279 FILLER_0_4_309
*1280 FILLER_0_4_321
*1281 FILLER_0_4_333
*1282 FILLER_0_4_41
*1283 FILLER_0_4_53
*1284 FILLER_0_4_65
*1285 FILLER_0_4_77
*1286 FILLER_0_4_83
*1287 FILLER_0_4_85
*1288 FILLER_0_4_97
*1289 FILLER_0_5_105
*1290 FILLER_0_5_111
*1291 FILLER_0_5_113
*1292 FILLER_0_5_125
*1293 FILLER_0_5_137
*1294 FILLER_0_5_149
*1295 FILLER_0_5_15
*1296 FILLER_0_5_161
*1297 FILLER_0_5_167
*1298 FILLER_0_5_169
*1299 FILLER_0_5_181
*1300 FILLER_0_5_193
*1301 FILLER_0_5_205
*1302 FILLER_0_5_217
*1303 FILLER_0_5_223
*1304 FILLER_0_5_225
*1305 FILLER_0_5_237
*1306 FILLER_0_5_249
*1307 FILLER_0_5_261
*1308 FILLER_0_5_27
*1309 FILLER_0_5_273
*1310 FILLER_0_5_279
*1311 FILLER_0_5_281
*1312 FILLER_0_5_293
*1313 FILLER_0_5_3
*1314 FILLER_0_5_305
*1315 FILLER_0_5_317
*1316 FILLER_0_5_329
*1317 FILLER_0_5_39
*1318 FILLER_0_5_51
*1319 FILLER_0_5_55
*1320 FILLER_0_5_57
*1321 FILLER_0_5_69
*1322 FILLER_0_5_81
*1323 FILLER_0_5_93
*1324 FILLER_0_6_109
*1325 FILLER_0_6_121
*1326 FILLER_0_6_133
*1327 FILLER_0_6_139
*1328 FILLER_0_6_141
*1329 FILLER_0_6_15
*1330 FILLER_0_6_153
*1331 FILLER_0_6_165
*1332 FILLER_0_6_177
*1333 FILLER_0_6_189
*1334 FILLER_0_6_195
*1335 FILLER_0_6_197
*1336 FILLER_0_6_209
*1337 FILLER_0_6_221
*1338 FILLER_0_6_233
*1339 FILLER_0_6_245
*1340 FILLER_0_6_251
*1341 FILLER_0_6_253
*1342 FILLER_0_6_265
*1343 FILLER_0_6_27
*1344 FILLER_0_6_277
*1345 FILLER_0_6_289
*1346 FILLER_0_6_29
*1347 FILLER_0_6_3
*1348 FILLER_0_6_301
*1349 FILLER_0_6_307
*1350 FILLER_0_6_309
*1351 FILLER_0_6_321
*1352 FILLER_0_6_333
*1353 FILLER_0_6_41
*1354 FILLER_0_6_53
*1355 FILLER_0_6_65
*1356 FILLER_0_6_77
*1357 FILLER_0_6_83
*1358 FILLER_0_6_85
*1359 FILLER_0_6_97
*1360 FILLER_0_7_105
*1361 FILLER_0_7_111
*1362 FILLER_0_7_113
*1363 FILLER_0_7_125
*1364 FILLER_0_7_137
*1365 FILLER_0_7_149
*1366 FILLER_0_7_15
*1367 FILLER_0_7_161
*1368 FILLER_0_7_167
*1369 FILLER_0_7_169
*1370 FILLER_0_7_181
*1371 FILLER_0_7_193
*1372 FILLER_0_7_205
*1373 FILLER_0_7_217
*1374 FILLER_0_7_223
*1375 FILLER_0_7_225
*1376 FILLER_0_7_237
*1377 FILLER_0_7_249
*1378 FILLER_0_7_261
*1379 FILLER_0_7_27
*1380 FILLER_0_7_273
*1381 FILLER_0_7_279
*1382 FILLER_0_7_281
*1383 FILLER_0_7_293
*1384 FILLER_0_7_3
*1385 FILLER_0_7_305
*1386 FILLER_0_7_317
*1387 FILLER_0_7_329
*1388 FILLER_0_7_39
*1389 FILLER_0_7_51
*1390 FILLER_0_7_55
*1391 FILLER_0_7_57
*1392 FILLER_0_7_69
*1393 FILLER_0_7_81
*1394 FILLER_0_7_93
*1395 FILLER_0_8_109
*1396 FILLER_0_8_121
*1397 FILLER_0_8_133
*1398 FILLER_0_8_139
*1399 FILLER_0_8_141
*1400 FILLER_0_8_15
*1401 FILLER_0_8_153
*1402 FILLER_0_8_165
*1403 FILLER_0_8_177
*1404 FILLER_0_8_189
*1405 FILLER_0_8_195
*1406 FILLER_0_8_197
*1407 FILLER_0_8_209
*1408 FILLER_0_8_221
*1409 FILLER_0_8_233
*1410 FILLER_0_8_245
*1411 FILLER_0_8_251
*1412 FILLER_0_8_253
*1413 FILLER_0_8_265
*1414 FILLER_0_8_27
*1415 FILLER_0_8_277
*1416 FILLER_0_8_289
*1417 FILLER_0_8_29
*1418 FILLER_0_8_3
*1419 FILLER_0_8_301
*1420 FILLER_0_8_307
*1421 FILLER_0_8_309
*1422 FILLER_0_8_321
*1423 FILLER_0_8_333
*1424 FILLER_0_8_41
*1425 FILLER_0_8_53
*1426 FILLER_0_8_65
*1427 FILLER_0_8_77
*1428 FILLER_0_8_83
*1429 FILLER_0_8_85
*1430 FILLER_0_8_97
*1431 FILLER_0_9_105
*1432 FILLER_0_9_111
*1433 FILLER_0_9_113
*1434 FILLER_0_9_125
*1435 FILLER_0_9_137
*1436 FILLER_0_9_149
*1437 FILLER_0_9_15
*1438 FILLER_0_9_161
*1439 FILLER_0_9_167
*1440 FILLER_0_9_169
*1441 FILLER_0_9_181
*1442 FILLER_0_9_193
*1443 FILLER_0_9_205
*1444 FILLER_0_9_217
*1445 FILLER_0_9_223
*1446 FILLER_0_9_225
*1447 FILLER_0_9_237
*1448 FILLER_0_9_249
*1449 FILLER_0_9_261
*1450 FILLER_0_9_27
*1451 FILLER_0_9_273
*1452 FILLER_0_9_279
*1453 FILLER_0_9_281
*1454 FILLER_0_9_293
*1455 FILLER_0_9_3
*1456 FILLER_0_9_305
*1457 FILLER_0_9_317
*1458 FILLER_0_9_329
*1459 FILLER_0_9_39
*1460 FILLER_0_9_51
*1461 FILLER_0_9_55
*1462 FILLER_0_9_57
*1463 FILLER_0_9_69
*1464 FILLER_0_9_81
*1465 FILLER_0_9_93