*SPEF "ieee 1481-1999"
*DESIGN "tt_um_csit_luks"
*DATE "14:47:53 Wednesday April 17, 2024"
*VENDOR "The OpenROAD Project"
*PROGRAM "OpenROAD"
*VERSION "0889970d1790a2617e69f253221b8bd7626e51dc"
*DESIGN_FLOW "NAME_SCOPE LOCAL" "PIN_CAP NONE"
*DIVIDER /
*DELIMITER :
*BUS_DELIMITER []
*T_UNIT 1 NS
*C_UNIT 1 PF
*R_UNIT 1 OHM
*L_UNIT 1 HENRY

*NAME_MAP
*3 clk
*4 ena
*5 rst_n
*6 ui_in[0]
*7 ui_in[1]
*8 ui_in[2]
*9 ui_in[3]
*10 ui_in[4]
*11 ui_in[5]
*12 ui_in[6]
*13 ui_in[7]
*14 uio_in[0]
*15 uio_in[1]
*16 uio_in[2]
*17 uio_in[3]
*18 uio_in[4]
*19 uio_in[5]
*20 uio_in[6]
*21 uio_in[7]
*22 net23
*23 net24
*24 net25
*25 net26
*26 net27
*27 net28
*28 net29
*29 net30
*30 uio_out[0]
*31 uio_out[1]
*32 uio_out[2]
*33 uio_out[3]
*34 uio_out[4]
*35 uio_out[5]
*36 uio_out[6]
*37 uio_out[7]
*38 uo_out[0]
*39 uo_out[1]
*40 uo_out[2]
*41 uo_out[3]
*42 uo_out[4]
*43 uo_out[5]
*44 uo_out[6]
*45 uo_out[7]
*46 _0000_
*47 _0001_
*48 _0002_
*49 _0003_
*50 _0004_
*51 _0005_
*52 _0006_
*53 _0007_
*54 _0008_
*55 _0009_
*56 _0010_
*57 _0011_
*58 _0012_
*59 _0013_
*60 _0014_
*61 _0015_
*62 _0016_
*63 _0017_
*64 _0018_
*65 _0019_
*66 _0020_
*67 _0021_
*68 _0022_
*69 _0023_
*70 _0024_
*71 _0025_
*72 _0026_
*73 _0027_
*74 _0028_
*75 _0029_
*76 _0030_
*77 _0031_
*78 _0032_
*79 _0033_
*80 _0034_
*81 _0035_
*82 _0036_
*83 _0037_
*84 _0038_
*85 _0039_
*86 _0040_
*87 _0041_
*88 _0042_
*89 _0043_
*90 _0044_
*91 _0045_
*92 _0046_
*93 _0047_
*94 _0048_
*95 _0049_
*96 _0050_
*97 _0051_
*98 _0052_
*99 _0053_
*100 _0054_
*101 _0055_
*102 _0056_
*103 _0057_
*104 _0058_
*105 _0059_
*106 _0060_
*107 _0061_
*108 _0062_
*109 _0063_
*110 _0064_
*111 _0065_
*112 _0066_
*113 _0067_
*114 _0068_
*115 _0069_
*116 _0070_
*117 _0071_
*118 _0072_
*119 _0073_
*120 _0074_
*121 _0075_
*122 _0076_
*123 _0077_
*124 _0078_
*125 _0079_
*126 _0080_
*127 _0081_
*128 _0082_
*129 _0083_
*130 _0084_
*131 _0085_
*132 _0086_
*133 _0087_
*134 _0088_
*135 _0089_
*136 _0090_
*137 _0091_
*138 _0092_
*139 _0093_
*140 _0094_
*141 _0095_
*142 _0096_
*143 _0097_
*144 _0098_
*145 _0099_
*146 _0100_
*147 _0101_
*148 _0102_
*149 _0103_
*150 _0104_
*151 _0105_
*152 _0106_
*153 _0107_
*154 _0108_
*155 _0109_
*156 _0110_
*157 _0111_
*158 _0112_
*159 _0113_
*160 _0114_
*161 _0115_
*162 _0116_
*163 _0117_
*164 _0118_
*165 _0119_
*166 _0120_
*167 _0121_
*168 _0122_
*169 _0123_
*170 _0124_
*171 _0125_
*172 _0126_
*173 _0127_
*174 _0128_
*175 _0129_
*176 _0130_
*177 _0131_
*178 _0132_
*179 _0133_
*180 _0134_
*181 _0135_
*182 _0136_
*183 _0137_
*184 _0138_
*185 _0139_
*186 _0140_
*187 _0141_
*188 _0142_
*189 _0143_
*190 _0144_
*191 _0145_
*192 _0146_
*193 _0147_
*194 _0148_
*195 _0149_
*196 _0150_
*197 _0151_
*198 _0152_
*199 _0153_
*200 _0154_
*201 _0155_
*202 _0156_
*203 _0157_
*204 _0158_
*205 _0159_
*206 _0160_
*207 _0161_
*208 _0162_
*209 _0163_
*210 _0164_
*211 _0165_
*212 _0166_
*213 _0167_
*214 _0168_
*215 _0169_
*216 _0170_
*217 _0171_
*218 _0172_
*219 _0173_
*220 _0174_
*221 _0175_
*222 _0176_
*223 _0177_
*224 _0178_
*225 _0179_
*226 _0180_
*227 _0181_
*228 _0182_
*229 _0183_
*230 _0184_
*231 _0185_
*232 _0186_
*233 _0187_
*234 _0188_
*235 _0189_
*236 _0190_
*237 _0191_
*238 _0192_
*239 _0193_
*240 _0194_
*241 _0195_
*242 _0196_
*243 _0197_
*244 _0198_
*245 _0199_
*246 _0200_
*247 _0201_
*248 _0202_
*249 _0203_
*250 _0204_
*251 _0205_
*252 _0206_
*253 _0207_
*254 _0208_
*255 _0209_
*256 _0210_
*257 _0211_
*258 _0212_
*259 _0213_
*260 _0214_
*261 _0215_
*262 _0216_
*263 _0217_
*264 _0218_
*265 _0219_
*266 _0220_
*267 _0221_
*268 _0222_
*269 _0223_
*270 _0224_
*271 _0225_
*272 _0226_
*273 _0227_
*274 _0228_
*275 _0229_
*276 _0230_
*277 _0231_
*278 _0232_
*279 _0233_
*280 _0234_
*281 _0235_
*282 _0236_
*283 _0237_
*284 _0238_
*285 _0239_
*286 _0240_
*287 _0241_
*288 _0242_
*289 _0243_
*290 _0244_
*291 _0245_
*292 _0246_
*293 _0247_
*294 _0248_
*295 _0249_
*296 _0250_
*297 _0251_
*298 _0252_
*299 _0253_
*300 _0254_
*301 _0255_
*302 _0256_
*303 _0257_
*304 _0258_
*305 _0259_
*306 _0260_
*307 _0261_
*308 _0262_
*309 _0263_
*310 _0264_
*311 _0265_
*312 _0266_
*313 _0267_
*314 _0268_
*315 _0269_
*316 _0270_
*317 _0271_
*318 _0272_
*319 _0273_
*320 _0274_
*321 _0275_
*322 _0276_
*323 _0277_
*324 _0278_
*325 _0279_
*326 _0280_
*327 _0281_
*328 _0282_
*329 _0283_
*330 _0284_
*331 _0285_
*332 _0286_
*333 _0287_
*334 _0288_
*335 _0289_
*336 _0290_
*337 _0291_
*338 _0292_
*339 _0293_
*340 _0294_
*341 _0295_
*342 _0296_
*343 _0297_
*344 _0298_
*345 _0299_
*346 _0300_
*347 _0301_
*348 _0302_
*349 _0303_
*350 _0304_
*351 _0305_
*352 _0306_
*353 _0307_
*354 _0308_
*355 _0309_
*356 _0310_
*357 _0311_
*358 _0312_
*359 _0313_
*360 _0314_
*361 _0315_
*362 _0316_
*363 _0317_
*364 _0318_
*365 _0319_
*366 _0320_
*367 _0321_
*368 _0322_
*369 _0323_
*370 _0324_
*371 _0325_
*372 _0326_
*373 _0327_
*374 _0328_
*375 _0329_
*376 _0330_
*377 _0331_
*378 _0332_
*379 _0333_
*380 _0334_
*381 _0335_
*382 _0336_
*383 _0337_
*384 _0338_
*385 _0339_
*386 _0340_
*387 _0341_
*388 _0342_
*389 _0343_
*390 _0344_
*391 _0345_
*392 _0346_
*393 _0347_
*394 _0348_
*395 _0349_
*396 _0350_
*397 _0351_
*398 _0352_
*399 _0353_
*400 _0354_
*401 _0355_
*402 _0356_
*403 _0357_
*404 _0358_
*405 _0359_
*406 _0360_
*407 _0361_
*408 _0362_
*409 _0363_
*410 _0364_
*411 _0365_
*412 _0366_
*413 _0367_
*414 _0368_
*415 _0369_
*416 _0370_
*417 _0371_
*418 _0372_
*419 _0373_
*420 _0374_
*421 _0375_
*422 _0376_
*423 _0377_
*424 _0378_
*425 _0379_
*426 _0380_
*427 _0381_
*428 _0382_
*429 _0383_
*430 _0384_
*431 _0385_
*432 _0386_
*433 _0387_
*434 _0388_
*435 _0389_
*436 _0390_
*437 _0391_
*438 _0392_
*439 _0393_
*440 _0394_
*441 _0395_
*442 _0396_
*443 _0397_
*444 _0398_
*445 _0399_
*446 _0400_
*447 _0401_
*448 _0402_
*449 _0403_
*450 _0404_
*451 _0405_
*452 _0406_
*453 _0407_
*454 _0408_
*455 _0409_
*456 _0410_
*457 _0411_
*458 _0412_
*459 _0413_
*460 _0414_
*461 _0415_
*462 _0416_
*463 _0417_
*464 _0418_
*465 _0419_
*466 _0420_
*467 _0421_
*468 _0422_
*469 _0423_
*470 _0424_
*471 _0425_
*472 _0426_
*473 _0427_
*474 _0428_
*475 _0429_
*476 _0430_
*477 _0431_
*478 _0432_
*479 _0433_
*480 _0434_
*481 _0435_
*482 _0436_
*483 _0437_
*484 _0438_
*485 _0439_
*486 _0440_
*487 _0441_
*488 _0442_
*489 _0443_
*490 _0444_
*491 _0445_
*492 _0446_
*493 _0447_
*494 _0448_
*495 _0449_
*496 _0450_
*497 _0451_
*498 _0452_
*499 _0453_
*500 _0454_
*501 _0455_
*502 _0456_
*503 _0457_
*504 _0458_
*505 _0459_
*506 _0460_
*507 _0461_
*508 _0462_
*509 _0463_
*510 _0464_
*511 _0465_
*512 _0466_
*513 _0467_
*514 _0468_
*515 _0469_
*516 _0470_
*517 _0471_
*518 _0472_
*519 _0473_
*520 _0474_
*521 _0475_
*522 _0476_
*523 _0477_
*524 _0478_
*525 _0479_
*526 _0480_
*527 _0481_
*528 _0482_
*529 _0483_
*530 _0484_
*531 _0485_
*532 _0486_
*533 _0487_
*534 _0488_
*535 _0489_
*536 _0490_
*537 _0491_
*538 _0492_
*539 _0493_
*540 _0494_
*541 _0495_
*542 _0496_
*543 _0497_
*544 _0498_
*545 _0499_
*546 _0500_
*547 _0501_
*548 _0502_
*549 _0503_
*550 _0504_
*551 _0505_
*552 _0506_
*553 _0507_
*554 _0508_
*555 _0509_
*556 _0510_
*557 _0511_
*558 _0512_
*559 _0513_
*560 _0514_
*561 _0515_
*562 _0516_
*563 _0517_
*564 _0518_
*565 _0519_
*566 _0520_
*567 _0521_
*568 _0522_
*569 _0523_
*570 _0524_
*571 _0525_
*572 _0526_
*573 _0527_
*574 _0528_
*575 _0529_
*576 _0530_
*577 _0531_
*578 _0532_
*579 _0533_
*580 _0534_
*581 _0535_
*582 _0536_
*583 _0537_
*584 _0538_
*585 _0539_
*586 _0540_
*587 _0541_
*588 _0542_
*589 _0543_
*590 _0544_
*591 _0545_
*592 _0546_
*593 _0547_
*594 _0548_
*595 _0549_
*596 _0550_
*597 _0551_
*598 _0552_
*599 _0553_
*600 _0554_
*601 _0555_
*602 _0556_
*603 _0557_
*604 _0558_
*605 _0559_
*606 _0560_
*607 _0561_
*608 _0562_
*609 _0563_
*610 _0564_
*611 _0565_
*612 _0566_
*613 _0567_
*614 _0568_
*615 _0569_
*616 _0570_
*617 _0571_
*618 _0572_
*619 _0573_
*620 _0574_
*621 _0575_
*622 _0576_
*623 _0577_
*624 _0578_
*625 _0579_
*626 _0580_
*627 _0581_
*628 _0582_
*629 _0583_
*630 _0584_
*631 _0585_
*632 _0586_
*633 _0587_
*634 _0588_
*635 clknet_0_clk
*636 clknet_4_0_0_clk
*637 clknet_4_10_0_clk
*638 clknet_4_11_0_clk
*639 clknet_4_12_0_clk
*640 clknet_4_13_0_clk
*641 clknet_4_14_0_clk
*642 clknet_4_15_0_clk
*643 clknet_4_1_0_clk
*644 clknet_4_2_0_clk
*645 clknet_4_3_0_clk
*646 clknet_4_4_0_clk
*647 clknet_4_5_0_clk
*648 clknet_4_6_0_clk
*649 clknet_4_7_0_clk
*650 clknet_4_8_0_clk
*651 clknet_4_9_0_clk
*652 fsm_instance\.F_set_flag
*653 fsm_instance\.F_val\[0\]
*654 fsm_instance\.F_val\[1\]
*655 fsm_instance\.F_val\[2\]
*656 fsm_instance\.F_val\[3\]
*657 fsm_instance\.ISO_val\[0\]
*658 fsm_instance\.ISO_val\[1\]
*659 fsm_instance\.ISO_val\[2\]
*660 fsm_instance\.ISO_val\[3\]
*661 fsm_instance\.LUX_val\[0\]
*662 fsm_instance\.LUX_val\[1\]
*663 fsm_instance\.LUX_val\[2\]
*664 fsm_instance\.LUX_val\[3\]
*665 fsm_instance\.LUX_val\[4\]
*666 fsm_instance\.LUX_val\[5\]
*667 fsm_instance\.LUX_val\[6\]
*668 fsm_instance\.LUX_val\[7\]
*669 fsm_instance\.SS_val\[0\]
*670 fsm_instance\.SS_val\[1\]
*671 fsm_instance\.SS_val\[2\]
*672 fsm_instance\.SS_val\[3\]
*673 fsm_instance\.current_state\[0\]
*674 fsm_instance\.current_state\[1\]
*675 fsm_instance\.current_state\[2\]
*676 fsm_instance\.display_out\[0\]
*677 fsm_instance\.display_out\[1\]
*678 fsm_instance\.display_out\[2\]
*679 fsm_instance\.display_out\[3\]
*680 fsm_instance\.display_sel\[1\]
*681 fsm_instance\.display_sel\[2\]
*682 fsm_instance\.display_sel\[3\]
*683 fsm_instance\.enc_count\[0\]
*684 fsm_instance\.enc_count\[1\]
*685 fsm_instance\.enc_count\[2\]
*686 fsm_instance\.enc_count\[3\]
*687 fsm_instance\.fd\[0\]
*688 fsm_instance\.fd\[1\]
*689 fsm_instance\.fd\[2\]
*690 fsm_instance\.fd_address\[0\]
*691 fsm_instance\.fd_address\[10\]
*692 fsm_instance\.fd_address\[11\]
*693 fsm_instance\.fd_address\[12\]
*694 fsm_instance\.fd_address\[13\]
*695 fsm_instance\.fd_address\[14\]
*696 fsm_instance\.fd_address\[15\]
*697 fsm_instance\.fd_address\[16\]
*698 fsm_instance\.fd_address\[17\]
*699 fsm_instance\.fd_address\[18\]
*700 fsm_instance\.fd_address\[19\]
*701 fsm_instance\.fd_address\[1\]
*702 fsm_instance\.fd_address\[2\]
*703 fsm_instance\.fd_address\[3\]
*704 fsm_instance\.fd_address\[4\]
*705 fsm_instance\.fd_address\[5\]
*706 fsm_instance\.fd_address\[6\]
*707 fsm_instance\.fd_address\[7\]
*708 fsm_instance\.fd_address\[8\]
*709 fsm_instance\.fd_address\[9\]
*710 fsm_instance\.fd_ready
*711 fsm_instance\.fd_valid
*712 fsm_instance\.lux_ready
*713 fsm_instance\.lux_valid
*714 fsm_instance\.pb_press\[0\]
*715 fsm_instance\.pb_press\[1\]
*716 fsm_instance\.previous_state\[0\]
*717 fsm_instance\.previous_state\[1\]
*718 fsm_instance\.rstn
*719 net1
*720 net10
*721 net100
*722 net101
*723 net102
*724 net103
*725 net104
*726 net105
*727 net106
*728 net107
*729 net108
*730 net109
*731 net11
*732 net110
*733 net111
*734 net112
*735 net113
*736 net114
*737 net115
*738 net116
*739 net117
*740 net118
*741 net119
*742 net12
*743 net120
*744 net121
*745 net122
*746 net123
*747 net124
*748 net125
*749 net126
*750 net127
*751 net128
*752 net129
*753 net13
*754 net130
*755 net131
*756 net132
*757 net133
*758 net134
*759 net135
*760 net136
*761 net137
*762 net138
*763 net139
*764 net14
*765 net15
*766 net16
*767 net17
*768 net18
*769 net19
*770 net2
*771 net20
*772 net21
*773 net22
*774 net3
*775 net31
*776 net32
*777 net33
*778 net34
*779 net35
*780 net36
*781 net37
*782 net38
*783 net39
*784 net4
*785 net40
*786 net41
*787 net42
*788 net43
*789 net44
*790 net45
*791 net46
*792 net47
*793 net48
*794 net49
*795 net5
*796 net50
*797 net51
*798 net52
*799 net53
*800 net54
*801 net55
*802 net56
*803 net57
*804 net58
*805 net59
*806 net6
*807 net60
*808 net61
*809 net62
*810 net63
*811 net64
*812 net65
*813 net66
*814 net67
*815 net68
*816 net69
*817 net7
*818 net70
*819 net71
*820 net72
*821 net73
*822 net74
*823 net75
*824 net76
*825 net77
*826 net78
*827 net79
*828 net8
*829 net80
*830 net81
*831 net82
*832 net83
*833 net84
*834 net85
*835 net86
*836 net87
*837 net88
*838 net89
*839 net9
*840 net90
*841 net91
*842 net92
*843 net93
*844 net94
*845 net95
*846 net96
*847 net97
*848 net98
*849 net99
*850 rotational_encoder_instance\.lastA
*851 rotational_encoder_instance\.lastB
*852 rotational_encoder_instance\.pb_cnt\[0\]
*853 rotational_encoder_instance\.pb_cnt\[10\]
*854 rotational_encoder_instance\.pb_cnt\[11\]
*855 rotational_encoder_instance\.pb_cnt\[1\]
*856 rotational_encoder_instance\.pb_cnt\[2\]
*857 rotational_encoder_instance\.pb_cnt\[3\]
*858 rotational_encoder_instance\.pb_cnt\[4\]
*859 rotational_encoder_instance\.pb_cnt\[5\]
*860 rotational_encoder_instance\.pb_cnt\[6\]
*861 rotational_encoder_instance\.pb_cnt\[7\]
*862 rotational_encoder_instance\.pb_cnt\[8\]
*863 rotational_encoder_instance\.pb_cnt\[9\]
*864 seven_segment_instance\.multiplexing_counter\[0\]
*865 seven_segment_instance\.multiplexing_counter\[1\]
*866 spi_flash_instance\.address\[0\]
*867 spi_flash_instance\.address\[10\]
*868 spi_flash_instance\.address\[11\]
*869 spi_flash_instance\.address\[12\]
*870 spi_flash_instance\.address\[13\]
*871 spi_flash_instance\.address\[14\]
*872 spi_flash_instance\.address\[15\]
*873 spi_flash_instance\.address\[16\]
*874 spi_flash_instance\.address\[17\]
*875 spi_flash_instance\.address\[18\]
*876 spi_flash_instance\.address\[19\]
*877 spi_flash_instance\.address\[1\]
*878 spi_flash_instance\.address\[2\]
*879 spi_flash_instance\.address\[3\]
*880 spi_flash_instance\.address\[4\]
*881 spi_flash_instance\.address\[5\]
*882 spi_flash_instance\.address\[6\]
*883 spi_flash_instance\.address\[7\]
*884 spi_flash_instance\.address\[8\]
*885 spi_flash_instance\.address\[9\]
*886 spi_flash_instance\.bit_counter\[0\]
*887 spi_flash_instance\.bit_counter\[1\]
*888 spi_flash_instance\.bit_counter\[2\]
*889 spi_flash_instance\.bit_counter\[3\]
*890 spi_flash_instance\.bit_counter\[4\]
*891 spi_flash_instance\.bit_counter\[5\]
*892 spi_flash_instance\.bit_counter\[6\]
*893 spi_flash_instance\.bit_counter\[7\]
*894 spi_flash_instance\.cs
*895 spi_flash_instance\.mosi
*896 spi_flash_instance\.sclk
*897 spi_flash_instance\.state\[0\]
*898 spi_flash_instance\.state\[1\]
*899 spi_sensor_instance\.bit_counter\[0\]
*900 spi_sensor_instance\.bit_counter\[1\]
*901 spi_sensor_instance\.bit_counter\[2\]
*902 spi_sensor_instance\.bit_counter\[3\]
*903 spi_sensor_instance\.bit_counter\[4\]
*904 spi_sensor_instance\.cs
*905 spi_sensor_instance\.sclk
*906 spi_sensor_instance\.state\[0\]
*907 spi_sensor_instance\.state\[1\]
*908 spi_sensor_instance\.state\[2\]
*909 FILLER_0_0_109
*910 FILLER_0_0_113
*911 FILLER_0_0_125
*912 FILLER_0_0_137
*913 FILLER_0_0_141
*914 FILLER_0_0_145
*915 FILLER_0_0_15
*916 FILLER_0_0_166
*917 FILLER_0_0_169
*918 FILLER_0_0_181
*919 FILLER_0_0_188
*920 FILLER_0_0_197
*921 FILLER_0_0_205
*922 FILLER_0_0_210
*923 FILLER_0_0_222
*924 FILLER_0_0_225
*925 FILLER_0_0_237
*926 FILLER_0_0_249
*927 FILLER_0_0_253
*928 FILLER_0_0_265
*929 FILLER_0_0_27
*930 FILLER_0_0_277
*931 FILLER_0_0_281
*932 FILLER_0_0_29
*933 FILLER_0_0_293
*934 FILLER_0_0_3
*935 FILLER_0_0_305
*936 FILLER_0_0_309
*937 FILLER_0_0_321
*938 FILLER_0_0_333
*939 FILLER_0_0_41
*940 FILLER_0_0_53
*941 FILLER_0_0_57
*942 FILLER_0_0_69
*943 FILLER_0_0_81
*944 FILLER_0_0_85
*945 FILLER_0_0_97
*946 FILLER_0_10_115
*947 FILLER_0_10_123
*948 FILLER_0_10_149
*949 FILLER_0_10_15
*950 FILLER_0_10_180
*951 FILLER_0_10_189
*952 FILLER_0_10_195
*953 FILLER_0_10_197
*954 FILLER_0_10_209
*955 FILLER_0_10_217
*956 FILLER_0_10_249
*957 FILLER_0_10_253
*958 FILLER_0_10_27
*959 FILLER_0_10_281
*960 FILLER_0_10_289
*961 FILLER_0_10_29
*962 FILLER_0_10_3
*963 FILLER_0_10_320
*964 FILLER_0_10_329
*965 FILLER_0_10_41
*966 FILLER_0_10_85
*967 FILLER_0_11_109
*968 FILLER_0_11_121
*969 FILLER_0_11_146
*970 FILLER_0_11_15
*971 FILLER_0_11_163
*972 FILLER_0_11_195
*973 FILLER_0_11_217
*974 FILLER_0_11_223
*975 FILLER_0_11_225
*976 FILLER_0_11_27
*977 FILLER_0_11_281
*978 FILLER_0_11_287
*979 FILLER_0_11_3
*980 FILLER_0_11_334
*981 FILLER_0_11_39
*982 FILLER_0_11_51
*983 FILLER_0_11_69
*984 FILLER_0_11_75
*985 FILLER_0_11_87
*986 FILLER_0_12_105
*987 FILLER_0_12_117
*988 FILLER_0_12_147
*989 FILLER_0_12_15
*990 FILLER_0_12_159
*991 FILLER_0_12_176
*992 FILLER_0_12_218
*993 FILLER_0_12_251
*994 FILLER_0_12_261
*995 FILLER_0_12_27
*996 FILLER_0_12_275
*997 FILLER_0_12_29
*998 FILLER_0_12_295
*999 FILLER_0_12_3
*1000 FILLER_0_12_334
*1001 FILLER_0_12_41
*1002 FILLER_0_12_53
*1003 FILLER_0_12_65
*1004 FILLER_0_12_77
*1005 FILLER_0_12_83
*1006 FILLER_0_12_85
*1007 FILLER_0_13_102
*1008 FILLER_0_13_11
*1009 FILLER_0_13_110
*1010 FILLER_0_13_113
*1011 FILLER_0_13_125
*1012 FILLER_0_13_129
*1013 FILLER_0_13_145
*1014 FILLER_0_13_157
*1015 FILLER_0_13_161
*1016 FILLER_0_13_203
*1017 FILLER_0_13_218
*1018 FILLER_0_13_250
*1019 FILLER_0_13_281
*1020 FILLER_0_13_3
*1021 FILLER_0_13_312
*1022 FILLER_0_13_333
*1023 FILLER_0_13_35
*1024 FILLER_0_13_47
*1025 FILLER_0_13_55
*1026 FILLER_0_13_57
*1027 FILLER_0_13_69
*1028 FILLER_0_13_73
*1029 FILLER_0_14_103
*1030 FILLER_0_14_117
*1031 FILLER_0_14_127
*1032 FILLER_0_14_139
*1033 FILLER_0_14_151
*1034 FILLER_0_14_157
*1035 FILLER_0_14_195
*1036 FILLER_0_14_237
*1037 FILLER_0_14_248
*1038 FILLER_0_14_260
*1039 FILLER_0_14_284
*1040 FILLER_0_14_288
*1041 FILLER_0_14_29
*1042 FILLER_0_14_3
*1043 FILLER_0_14_309
*1044 FILLER_0_14_332
*1045 FILLER_0_14_37
*1046 FILLER_0_14_43
*1047 FILLER_0_14_55
*1048 FILLER_0_14_83
*1049 FILLER_0_14_85
*1050 FILLER_0_15_11
*1051 FILLER_0_15_113
*1052 FILLER_0_15_129
*1053 FILLER_0_15_148
*1054 FILLER_0_15_160
*1055 FILLER_0_15_17
*1056 FILLER_0_15_175
*1057 FILLER_0_15_199
*1058 FILLER_0_15_203
*1059 FILLER_0_15_22
*1060 FILLER_0_15_281
*1061 FILLER_0_15_3
*1062 FILLER_0_15_302
*1063 FILLER_0_15_311
*1064 FILLER_0_15_330
*1065 FILLER_0_15_334
*1066 FILLER_0_15_52
*1067 FILLER_0_15_86
*1068 FILLER_0_15_99
*1069 FILLER_0_16_119
*1070 FILLER_0_16_139
*1071 FILLER_0_16_144
*1072 FILLER_0_16_15
*1073 FILLER_0_16_152
*1074 FILLER_0_16_195
*1075 FILLER_0_16_204
*1076 FILLER_0_16_212
*1077 FILLER_0_16_243
*1078 FILLER_0_16_253
*1079 FILLER_0_16_284
*1080 FILLER_0_16_3
*1081 FILLER_0_16_329
*1082 FILLER_0_16_46
*1083 FILLER_0_16_66
*1084 FILLER_0_16_78
*1085 FILLER_0_16_85
*1086 FILLER_0_16_97
*1087 FILLER_0_17_110
*1088 FILLER_0_17_113
*1089 FILLER_0_17_125
*1090 FILLER_0_17_133
*1091 FILLER_0_17_148
*1092 FILLER_0_17_15
*1093 FILLER_0_17_152
*1094 FILLER_0_17_169
*1095 FILLER_0_17_173
*1096 FILLER_0_17_206
*1097 FILLER_0_17_223
*1098 FILLER_0_17_259
*1099 FILLER_0_17_281
*1100 FILLER_0_17_3
*1101 FILLER_0_17_306
*1102 FILLER_0_17_334
*1103 FILLER_0_17_71
*1104 FILLER_0_17_83
*1105 FILLER_0_17_95
*1106 FILLER_0_17_99
*1107 FILLER_0_18_119
*1108 FILLER_0_18_131
*1109 FILLER_0_18_135
*1110 FILLER_0_18_141
*1111 FILLER_0_18_15
*1112 FILLER_0_18_152
*1113 FILLER_0_18_195
*1114 FILLER_0_18_249
*1115 FILLER_0_18_27
*1116 FILLER_0_18_280
*1117 FILLER_0_18_29
*1118 FILLER_0_18_3
*1119 FILLER_0_18_329
*1120 FILLER_0_18_47
*1121 FILLER_0_18_56
*1122 FILLER_0_18_62
*1123 FILLER_0_18_77
*1124 FILLER_0_18_83
*1125 FILLER_0_18_85
*1126 FILLER_0_19_121
*1127 FILLER_0_19_129
*1128 FILLER_0_19_150
*1129 FILLER_0_19_159
*1130 FILLER_0_19_172
*1131 FILLER_0_19_210
*1132 FILLER_0_19_222
*1133 FILLER_0_19_236
*1134 FILLER_0_19_25
*1135 FILLER_0_19_258
*1136 FILLER_0_19_262
*1137 FILLER_0_19_279
*1138 FILLER_0_19_288
*1139 FILLER_0_19_3
*1140 FILLER_0_19_50
*1141 FILLER_0_19_61
*1142 FILLER_0_19_90
*1143 FILLER_0_1_105
*1144 FILLER_0_1_111
*1145 FILLER_0_1_113
*1146 FILLER_0_1_125
*1147 FILLER_0_1_137
*1148 FILLER_0_1_15
*1149 FILLER_0_1_177
*1150 FILLER_0_1_199
*1151 FILLER_0_1_220
*1152 FILLER_0_1_245
*1153 FILLER_0_1_254
*1154 FILLER_0_1_266
*1155 FILLER_0_1_27
*1156 FILLER_0_1_278
*1157 FILLER_0_1_281
*1158 FILLER_0_1_293
*1159 FILLER_0_1_3
*1160 FILLER_0_1_305
*1161 FILLER_0_1_317
*1162 FILLER_0_1_329
*1163 FILLER_0_1_39
*1164 FILLER_0_1_51
*1165 FILLER_0_1_55
*1166 FILLER_0_1_57
*1167 FILLER_0_1_69
*1168 FILLER_0_1_81
*1169 FILLER_0_1_93
*1170 FILLER_0_20_113
*1171 FILLER_0_20_138
*1172 FILLER_0_20_15
*1173 FILLER_0_20_195
*1174 FILLER_0_20_208
*1175 FILLER_0_20_250
*1176 FILLER_0_20_253
*1177 FILLER_0_20_261
*1178 FILLER_0_20_284
*1179 FILLER_0_20_296
*1180 FILLER_0_20_3
*1181 FILLER_0_20_300
*1182 FILLER_0_20_309
*1183 FILLER_0_20_332
*1184 FILLER_0_20_41
*1185 FILLER_0_20_82
*1186 FILLER_0_21_108
*1187 FILLER_0_21_113
*1188 FILLER_0_21_125
*1189 FILLER_0_21_156
*1190 FILLER_0_21_169
*1191 FILLER_0_21_194
*1192 FILLER_0_21_202
*1193 FILLER_0_21_214
*1194 FILLER_0_21_222
*1195 FILLER_0_21_233
*1196 FILLER_0_21_237
*1197 FILLER_0_21_270
*1198 FILLER_0_21_285
*1199 FILLER_0_21_297
*1200 FILLER_0_21_3
*1201 FILLER_0_21_305
*1202 FILLER_0_21_42
*1203 FILLER_0_21_80
*1204 FILLER_0_21_88
*1205 FILLER_0_22_111
*1206 FILLER_0_22_123
*1207 FILLER_0_22_141
*1208 FILLER_0_22_147
*1209 FILLER_0_22_15
*1210 FILLER_0_22_157
*1211 FILLER_0_22_182
*1212 FILLER_0_22_190
*1213 FILLER_0_22_207
*1214 FILLER_0_22_219
*1215 FILLER_0_22_250
*1216 FILLER_0_22_260
*1217 FILLER_0_22_27
*1218 FILLER_0_22_3
*1219 FILLER_0_22_312
*1220 FILLER_0_22_319
*1221 FILLER_0_22_333
*1222 FILLER_0_22_35
*1223 FILLER_0_22_44
*1224 FILLER_0_22_51
*1225 FILLER_0_22_75
*1226 FILLER_0_22_83
*1227 FILLER_0_22_85
*1228 FILLER_0_23_157
*1229 FILLER_0_23_161
*1230 FILLER_0_23_182
*1231 FILLER_0_23_190
*1232 FILLER_0_23_207
*1233 FILLER_0_23_228
*1234 FILLER_0_23_235
*1235 FILLER_0_23_249
*1236 FILLER_0_23_273
*1237 FILLER_0_23_289
*1238 FILLER_0_23_3
*1239 FILLER_0_23_38
*1240 FILLER_0_23_50
*1241 FILLER_0_23_57
*1242 FILLER_0_23_68
*1243 FILLER_0_23_80
*1244 FILLER_0_23_88
*1245 FILLER_0_24_124
*1246 FILLER_0_24_136
*1247 FILLER_0_24_144
*1248 FILLER_0_24_157
*1249 FILLER_0_24_175
*1250 FILLER_0_24_187
*1251 FILLER_0_24_195
*1252 FILLER_0_24_197
*1253 FILLER_0_24_209
*1254 FILLER_0_24_218
*1255 FILLER_0_24_229
*1256 FILLER_0_24_237
*1257 FILLER_0_24_247
*1258 FILLER_0_24_251
*1259 FILLER_0_24_253
*1260 FILLER_0_24_3
*1261 FILLER_0_24_301
*1262 FILLER_0_24_32
*1263 FILLER_0_24_327
*1264 FILLER_0_24_44
*1265 FILLER_0_24_56
*1266 FILLER_0_24_68
*1267 FILLER_0_24_80
*1268 FILLER_0_24_85
*1269 FILLER_0_24_93
*1270 FILLER_0_25_110
*1271 FILLER_0_25_131
*1272 FILLER_0_25_139
*1273 FILLER_0_25_143
*1274 FILLER_0_25_15
*1275 FILLER_0_25_153
*1276 FILLER_0_25_165
*1277 FILLER_0_25_169
*1278 FILLER_0_25_173
*1279 FILLER_0_25_249
*1280 FILLER_0_25_27
*1281 FILLER_0_25_278
*1282 FILLER_0_25_289
*1283 FILLER_0_25_3
*1284 FILLER_0_25_331
*1285 FILLER_0_25_39
*1286 FILLER_0_25_50
*1287 FILLER_0_25_57
*1288 FILLER_0_25_76
*1289 FILLER_0_25_90
*1290 FILLER_0_26_117
*1291 FILLER_0_26_136
*1292 FILLER_0_26_15
*1293 FILLER_0_26_157
*1294 FILLER_0_26_169
*1295 FILLER_0_26_177
*1296 FILLER_0_26_192
*1297 FILLER_0_26_208
*1298 FILLER_0_26_216
*1299 FILLER_0_26_23
*1300 FILLER_0_26_245
*1301 FILLER_0_26_256
*1302 FILLER_0_26_264
*1303 FILLER_0_26_29
*1304 FILLER_0_26_299
*1305 FILLER_0_26_3
*1306 FILLER_0_26_323
*1307 FILLER_0_26_52
*1308 FILLER_0_26_70
*1309 FILLER_0_26_76
*1310 FILLER_0_26_82
*1311 FILLER_0_26_92
*1312 FILLER_0_26_96
*1313 FILLER_0_27_101
*1314 FILLER_0_27_120
*1315 FILLER_0_27_131
*1316 FILLER_0_27_149
*1317 FILLER_0_27_15
*1318 FILLER_0_27_165
*1319 FILLER_0_27_169
*1320 FILLER_0_27_181
*1321 FILLER_0_27_191
*1322 FILLER_0_27_203
*1323 FILLER_0_27_211
*1324 FILLER_0_27_23
*1325 FILLER_0_27_245
*1326 FILLER_0_27_254
*1327 FILLER_0_27_266
*1328 FILLER_0_27_276
*1329 FILLER_0_27_281
*1330 FILLER_0_27_285
*1331 FILLER_0_27_297
*1332 FILLER_0_27_3
*1333 FILLER_0_27_305
*1334 FILLER_0_27_34
*1335 FILLER_0_27_47
*1336 FILLER_0_27_55
*1337 FILLER_0_27_57
*1338 FILLER_0_27_63
*1339 FILLER_0_27_71
*1340 FILLER_0_27_80
*1341 FILLER_0_27_93
*1342 FILLER_0_28_100
*1343 FILLER_0_28_107
*1344 FILLER_0_28_119
*1345 FILLER_0_28_131
*1346 FILLER_0_28_139
*1347 FILLER_0_28_141
*1348 FILLER_0_28_15
*1349 FILLER_0_28_157
*1350 FILLER_0_28_173
*1351 FILLER_0_28_185
*1352 FILLER_0_28_19
*1353 FILLER_0_28_193
*1354 FILLER_0_28_204
*1355 FILLER_0_28_212
*1356 FILLER_0_28_242
*1357 FILLER_0_28_250
*1358 FILLER_0_28_253
*1359 FILLER_0_28_261
*1360 FILLER_0_28_299
*1361 FILLER_0_28_3
*1362 FILLER_0_28_323
*1363 FILLER_0_28_331
*1364 FILLER_0_28_38
*1365 FILLER_0_28_49
*1366 FILLER_0_28_61
*1367 FILLER_0_28_73
*1368 FILLER_0_28_82
*1369 FILLER_0_28_92
*1370 FILLER_0_29_103
*1371 FILLER_0_29_109
*1372 FILLER_0_29_123
*1373 FILLER_0_29_135
*1374 FILLER_0_29_146
*1375 FILLER_0_29_15
*1376 FILLER_0_29_154
*1377 FILLER_0_29_162
*1378 FILLER_0_29_169
*1379 FILLER_0_29_176
*1380 FILLER_0_29_184
*1381 FILLER_0_29_192
*1382 FILLER_0_29_203
*1383 FILLER_0_29_215
*1384 FILLER_0_29_222
*1385 FILLER_0_29_225
*1386 FILLER_0_29_259
*1387 FILLER_0_29_267
*1388 FILLER_0_29_27
*1389 FILLER_0_29_276
*1390 FILLER_0_29_281
*1391 FILLER_0_29_293
*1392 FILLER_0_29_3
*1393 FILLER_0_29_317
*1394 FILLER_0_29_329
*1395 FILLER_0_29_36
*1396 FILLER_0_29_47
*1397 FILLER_0_29_55
*1398 FILLER_0_29_57
*1399 FILLER_0_29_69
*1400 FILLER_0_29_73
*1401 FILLER_0_29_87
*1402 FILLER_0_29_99
*1403 FILLER_0_2_109
*1404 FILLER_0_2_121
*1405 FILLER_0_2_133
*1406 FILLER_0_2_139
*1407 FILLER_0_2_141
*1408 FILLER_0_2_15
*1409 FILLER_0_2_172
*1410 FILLER_0_2_206
*1411 FILLER_0_2_221
*1412 FILLER_0_2_227
*1413 FILLER_0_2_231
*1414 FILLER_0_2_241
*1415 FILLER_0_2_250
*1416 FILLER_0_2_27
*1417 FILLER_0_2_273
*1418 FILLER_0_2_285
*1419 FILLER_0_2_29
*1420 FILLER_0_2_297
*1421 FILLER_0_2_3
*1422 FILLER_0_2_305
*1423 FILLER_0_2_309
*1424 FILLER_0_2_321
*1425 FILLER_0_2_333
*1426 FILLER_0_2_41
*1427 FILLER_0_2_53
*1428 FILLER_0_2_65
*1429 FILLER_0_2_77
*1430 FILLER_0_2_83
*1431 FILLER_0_2_85
*1432 FILLER_0_2_97
*1433 FILLER_0_30_101
*1434 FILLER_0_30_113
*1435 FILLER_0_30_117
*1436 FILLER_0_30_126
*1437 FILLER_0_30_138
*1438 FILLER_0_30_141
*1439 FILLER_0_30_15
*1440 FILLER_0_30_164
*1441 FILLER_0_30_176
*1442 FILLER_0_30_188
*1443 FILLER_0_30_206
*1444 FILLER_0_30_218
*1445 FILLER_0_30_230
*1446 FILLER_0_30_25
*1447 FILLER_0_30_261
*1448 FILLER_0_30_280
*1449 FILLER_0_30_29
*1450 FILLER_0_30_292
*1451 FILLER_0_30_3
*1452 FILLER_0_30_307
*1453 FILLER_0_30_330
*1454 FILLER_0_30_334
*1455 FILLER_0_30_36
*1456 FILLER_0_30_51
*1457 FILLER_0_30_63
*1458 FILLER_0_30_77
*1459 FILLER_0_30_82
*1460 FILLER_0_30_85
*1461 FILLER_0_30_93
*1462 FILLER_0_31_106
*1463 FILLER_0_31_128
*1464 FILLER_0_31_140
*1465 FILLER_0_31_15
*1466 FILLER_0_31_152
*1467 FILLER_0_31_164
*1468 FILLER_0_31_169
*1469 FILLER_0_31_181
*1470 FILLER_0_31_189
*1471 FILLER_0_31_200
*1472 FILLER_0_31_212
*1473 FILLER_0_31_225
*1474 FILLER_0_31_259
*1475 FILLER_0_31_271
*1476 FILLER_0_31_284
*1477 FILLER_0_31_290
*1478 FILLER_0_31_3
*1479 FILLER_0_31_332
*1480 FILLER_0_31_38
*1481 FILLER_0_31_53
*1482 FILLER_0_31_57
*1483 FILLER_0_31_69
*1484 FILLER_0_31_75
*1485 FILLER_0_31_94
*1486 FILLER_0_32_104
*1487 FILLER_0_32_116
*1488 FILLER_0_32_128
*1489 FILLER_0_32_141
*1490 FILLER_0_32_15
*1491 FILLER_0_32_153
*1492 FILLER_0_32_158
*1493 FILLER_0_32_168
*1494 FILLER_0_32_180
*1495 FILLER_0_32_192
*1496 FILLER_0_32_203
*1497 FILLER_0_32_215
*1498 FILLER_0_32_227
*1499 FILLER_0_32_239
*1500 FILLER_0_32_268
*1501 FILLER_0_32_27
*1502 FILLER_0_32_292
*1503 FILLER_0_32_3
*1504 FILLER_0_32_300
*1505 FILLER_0_32_309
*1506 FILLER_0_32_324
*1507 FILLER_0_32_332
*1508 FILLER_0_32_38
*1509 FILLER_0_32_51
*1510 FILLER_0_32_63
*1511 FILLER_0_32_71
*1512 FILLER_0_32_83
*1513 FILLER_0_32_93
*1514 FILLER_0_33_108
*1515 FILLER_0_33_113
*1516 FILLER_0_33_117
*1517 FILLER_0_33_121
*1518 FILLER_0_33_129
*1519 FILLER_0_33_141
*1520 FILLER_0_33_149
*1521 FILLER_0_33_15
*1522 FILLER_0_33_156
*1523 FILLER_0_33_169
*1524 FILLER_0_33_181
*1525 FILLER_0_33_185
*1526 FILLER_0_33_192
*1527 FILLER_0_33_203
*1528 FILLER_0_33_215
*1529 FILLER_0_33_223
*1530 FILLER_0_33_225
*1531 FILLER_0_33_269
*1532 FILLER_0_33_27
*1533 FILLER_0_33_281
*1534 FILLER_0_33_3
*1535 FILLER_0_33_54
*1536 FILLER_0_33_57
*1537 FILLER_0_33_69
*1538 FILLER_0_33_77
*1539 FILLER_0_33_84
*1540 FILLER_0_33_96
*1541 FILLER_0_34_106
*1542 FILLER_0_34_118
*1543 FILLER_0_34_126
*1544 FILLER_0_34_138
*1545 FILLER_0_34_141
*1546 FILLER_0_34_149
*1547 FILLER_0_34_15
*1548 FILLER_0_34_155
*1549 FILLER_0_34_163
*1550 FILLER_0_34_171
*1551 FILLER_0_34_186
*1552 FILLER_0_34_192
*1553 FILLER_0_34_210
*1554 FILLER_0_34_222
*1555 FILLER_0_34_234
*1556 FILLER_0_34_242
*1557 FILLER_0_34_247
*1558 FILLER_0_34_251
*1559 FILLER_0_34_261
*1560 FILLER_0_34_27
*1561 FILLER_0_34_271
*1562 FILLER_0_34_286
*1563 FILLER_0_34_29
*1564 FILLER_0_34_296
*1565 FILLER_0_34_3
*1566 FILLER_0_34_330
*1567 FILLER_0_34_334
*1568 FILLER_0_34_55
*1569 FILLER_0_34_67
*1570 FILLER_0_34_81
*1571 FILLER_0_34_98
*1572 FILLER_0_35_106
*1573 FILLER_0_35_113
*1574 FILLER_0_35_125
*1575 FILLER_0_35_129
*1576 FILLER_0_35_15
*1577 FILLER_0_35_152
*1578 FILLER_0_35_156
*1579 FILLER_0_35_179
*1580 FILLER_0_35_191
*1581 FILLER_0_35_209
*1582 FILLER_0_35_221
*1583 FILLER_0_35_225
*1584 FILLER_0_35_233
*1585 FILLER_0_35_255
*1586 FILLER_0_35_27
*1587 FILLER_0_35_279
*1588 FILLER_0_35_281
*1589 FILLER_0_35_286
*1590 FILLER_0_35_294
*1591 FILLER_0_35_3
*1592 FILLER_0_35_300
*1593 FILLER_0_35_310
*1594 FILLER_0_35_319
*1595 FILLER_0_35_326
*1596 FILLER_0_35_54
*1597 FILLER_0_35_57
*1598 FILLER_0_35_65
*1599 FILLER_0_35_71
*1600 FILLER_0_36_114
*1601 FILLER_0_36_162
*1602 FILLER_0_36_170
*1603 FILLER_0_36_209
*1604 FILLER_0_36_221
*1605 FILLER_0_36_247
*1606 FILLER_0_36_29
*1607 FILLER_0_36_295
*1608 FILLER_0_36_3
*1609 FILLER_0_36_307
*1610 FILLER_0_36_333
*1611 FILLER_0_36_52
*1612 FILLER_0_36_64
*1613 FILLER_0_36_68
*1614 FILLER_0_36_82
*1615 FILLER_0_36_85
*1616 FILLER_0_36_94
*1617 FILLER_0_37_111
*1618 FILLER_0_37_121
*1619 FILLER_0_37_149
*1620 FILLER_0_37_153
*1621 FILLER_0_37_176
*1622 FILLER_0_37_201
*1623 FILLER_0_37_213
*1624 FILLER_0_37_221
*1625 FILLER_0_37_272
*1626 FILLER_0_37_276
*1627 FILLER_0_37_281
*1628 FILLER_0_37_3
*1629 FILLER_0_37_304
*1630 FILLER_0_37_33
*1631 FILLER_0_37_334
*1632 FILLER_0_37_46
*1633 FILLER_0_37_57
*1634 FILLER_0_37_73
*1635 FILLER_0_37_79
*1636 FILLER_0_37_97
*1637 FILLER_0_38_10
*1638 FILLER_0_38_113
*1639 FILLER_0_38_125