*SPEF "ieee 1481-1999"
*DESIGN "tt_um_mattvenn_rgb_mixer"
*DATE "11:57:35 Friday April 19, 2024"
*VENDOR "The OpenROAD Project"
*PROGRAM "OpenROAD"
*VERSION "0889970d1790a2617e69f253221b8bd7626e51dc"
*DESIGN_FLOW "NAME_SCOPE LOCAL" "PIN_CAP NONE"
*DIVIDER /
*DELIMITER :
*BUS_DELIMITER []
*T_UNIT 1 NS
*C_UNIT 1 PF
*R_UNIT 1 OHM
*L_UNIT 1 HENRY

*NAME_MAP
*3 clk
*4 ena
*5 rst_n
*6 ui_in[0]
*7 ui_in[1]
*8 ui_in[2]
*9 ui_in[3]
*10 ui_in[4]
*11 ui_in[5]
*12 ui_in[6]
*13 ui_in[7]
*14 uio_in[0]
*15 uio_in[1]
*16 uio_in[2]
*17 uio_in[3]
*18 uio_in[4]
*19 uio_in[5]
*20 uio_in[6]
*21 uio_in[7]
*22 net15
*23 net16
*24 net17
*25 net18
*26 net19
*27 net20
*28 net21
*29 net22
*30 uio_out[0]
*31 uio_out[1]
*32 uio_out[2]
*33 uio_out[3]
*34 uio_out[4]
*35 uio_out[5]
*36 uio_out[6]
*37 uio_out[7]
*38 uo_out[0]
*39 uo_out[1]
*40 uo_out[2]
*41 net10
*42 net11
*43 net12
*44 net13
*45 net14
*46 _0000_
*47 _0001_
*48 _0002_
*49 _0003_
*50 _0004_
*51 _0005_
*52 _0006_
*53 _0007_
*54 _0008_
*55 _0009_
*56 _0010_
*57 _0011_
*58 _0012_
*59 _0013_
*60 _0014_
*61 _0015_
*62 _0016_
*63 _0017_
*64 _0018_
*65 _0019_
*66 _0020_
*67 _0021_
*68 _0022_
*69 _0023_
*70 _0024_
*71 _0025_
*72 _0026_
*73 _0027_
*74 _0028_
*75 _0029_
*76 _0030_
*77 _0031_
*78 _0032_
*79 _0033_
*80 _0034_
*81 _0035_
*82 _0036_
*83 _0037_
*84 _0038_
*85 _0039_
*86 _0040_
*87 _0041_
*88 _0042_
*89 _0043_
*90 _0044_
*91 _0045_
*92 _0046_
*93 _0047_
*94 _0048_
*95 _0049_
*96 _0050_
*97 _0051_
*98 _0052_
*99 _0053_
*100 _0054_
*101 _0055_
*102 _0056_
*103 _0057_
*104 _0058_
*105 _0059_
*106 _0060_
*107 _0061_
*108 _0062_
*109 _0063_
*110 _0064_
*111 _0065_
*112 _0066_
*113 _0067_
*114 _0068_
*115 _0069_
*116 _0070_
*117 _0071_
*118 _0072_
*119 _0073_
*120 _0074_
*121 _0075_
*122 _0076_
*123 _0077_
*124 _0078_
*125 _0079_
*126 _0080_
*127 _0081_
*128 _0082_
*129 _0083_
*130 _0084_
*131 _0085_
*132 _0086_
*133 _0087_
*134 _0088_
*135 _0089_
*136 _0090_
*137 _0091_
*138 _0092_
*139 _0093_
*140 _0094_
*141 _0095_
*142 _0096_
*143 _0097_
*144 _0098_
*145 _0099_
*146 _0100_
*147 _0101_
*148 _0102_
*149 _0103_
*150 _0104_
*151 _0105_
*152 _0106_
*153 _0107_
*154 _0108_
*155 _0109_
*156 _0110_
*157 _0111_
*158 _0112_
*159 _0113_
*160 _0114_
*161 _0115_
*162 _0116_
*163 _0117_
*164 _0118_
*165 _0119_
*166 _0120_
*167 _0121_
*168 _0122_
*169 _0123_
*170 _0124_
*171 _0125_
*172 _0126_
*173 _0127_
*174 _0128_
*175 _0129_
*176 _0130_
*177 _0131_
*178 _0132_
*179 _0133_
*180 _0134_
*181 _0135_
*182 _0136_
*183 _0137_
*184 _0138_
*185 _0139_
*186 _0140_
*187 _0141_
*188 _0142_
*189 _0143_
*190 _0144_
*191 _0145_
*192 _0146_
*193 _0147_
*194 _0148_
*195 _0149_
*196 _0150_
*197 _0151_
*198 _0152_
*199 _0153_
*200 _0154_
*201 _0155_
*202 _0156_
*203 _0157_
*204 _0158_
*205 _0159_
*206 _0160_
*207 _0161_
*208 _0162_
*209 _0163_
*210 _0164_
*211 _0165_
*212 _0166_
*213 _0167_
*214 _0168_
*215 _0169_
*216 _0170_
*217 _0171_
*218 _0172_
*219 _0173_
*220 _0174_
*221 _0175_
*222 _0176_
*223 _0177_
*224 _0178_
*225 _0179_
*226 _0180_
*227 _0181_
*228 _0182_
*229 _0183_
*230 _0184_
*231 _0185_
*232 _0186_
*233 _0187_
*234 _0188_
*235 _0189_
*236 _0190_
*237 _0191_
*238 _0192_
*239 _0193_
*240 _0194_
*241 _0195_
*242 _0196_
*243 _0197_
*244 _0198_
*245 _0199_
*246 _0200_
*247 _0201_
*248 _0202_
*249 _0203_
*250 _0204_
*251 _0205_
*252 _0206_
*253 _0207_
*254 _0208_
*255 _0209_
*256 _0210_
*257 _0211_
*258 _0212_
*259 _0213_
*260 _0214_
*261 _0215_
*262 _0216_
*263 _0217_
*264 _0218_
*265 _0219_
*266 _0220_
*267 _0221_
*268 _0222_
*269 _0223_
*270 _0224_
*271 _0225_
*272 _0226_
*273 _0227_
*274 _0228_
*275 _0229_
*276 _0230_
*277 _0231_
*278 _0232_
*279 _0233_
*280 _0234_
*281 _0235_
*282 _0236_
*283 _0237_
*284 _0238_
*285 _0239_
*286 _0240_
*287 _0241_
*288 _0242_
*289 _0243_
*290 _0244_
*291 _0245_
*292 _0246_
*293 _0247_
*294 _0248_
*295 _0249_
*296 _0250_
*297 _0251_
*298 _0252_
*299 _0253_
*300 _0254_
*301 _0255_
*302 _0256_
*303 _0257_
*304 _0258_
*305 _0259_
*306 _0260_
*307 _0261_
*308 _0262_
*309 _0263_
*310 _0264_
*311 _0265_
*312 _0266_
*313 _0267_
*314 _0268_
*315 _0269_
*316 _0270_
*317 _0271_
*318 _0272_
*319 _0273_
*320 _0274_
*321 _0275_
*322 _0276_
*323 _0277_
*324 _0278_
*325 _0279_
*326 _0280_
*327 _0281_
*328 _0282_
*329 _0283_
*330 _0284_
*331 _0285_
*332 _0286_
*333 _0287_
*334 _0288_
*335 _0289_
*336 _0290_
*337 _0291_
*338 _0292_
*339 _0293_
*340 _0294_
*341 _0295_
*342 _0296_
*343 _0297_
*344 _0298_
*345 _0299_
*346 _0300_
*347 _0301_
*348 _0302_
*349 _0303_
*350 _0304_
*351 _0305_
*352 _0306_
*353 _0307_
*354 _0308_
*355 _0309_
*356 _0310_
*357 _0311_
*358 _0312_
*359 _0313_
*360 _0314_
*361 _0315_
*362 _0316_
*363 _0317_
*364 _0318_
*365 _0319_
*366 _0320_
*367 _0321_
*368 _0322_
*369 _0323_
*370 _0324_
*371 _0325_
*372 _0326_
*373 _0327_
*374 _0328_
*375 _0329_
*376 _0330_
*377 _0331_
*378 _0332_
*379 _0333_
*380 _0334_
*381 _0335_
*382 _0336_
*383 _0337_
*384 _0338_
*385 _0339_
*386 _0340_
*387 _0341_
*388 _0342_
*389 _0343_
*390 _0344_
*391 _0345_
*392 _0346_
*393 _0347_
*394 _0348_
*395 _0349_
*396 _0350_
*397 _0351_
*398 _0352_
*399 _0353_
*400 _0354_
*401 _0355_
*402 _0356_
*403 _0357_
*404 _0358_
*405 _0359_
*406 _0360_
*407 _0361_
*408 _0362_
*409 _0363_
*410 _0364_
*411 _0365_
*412 _0366_
*413 _0367_
*414 _0368_
*415 _0369_
*416 _0370_
*417 _0371_
*418 _0372_
*419 _0373_
*420 _0374_
*421 _0375_
*422 _0376_
*423 _0377_
*424 _0378_
*425 _0379_
*426 _0380_
*427 _0381_
*428 _0382_
*429 _0383_
*430 _0384_
*431 _0385_
*432 _0386_
*433 _0387_
*434 _0388_
*435 _0389_
*436 _0390_
*437 _0391_
*438 _0392_
*439 _0393_
*440 _0394_
*441 _0395_
*442 _0396_
*443 _0397_
*444 _0398_
*445 _0399_
*446 _0400_
*447 _0401_
*448 _0402_
*449 _0403_
*450 _0404_
*451 _0405_
*452 _0406_
*453 _0407_
*454 _0408_
*455 _0409_
*456 _0410_
*457 _0411_
*458 _0412_
*459 _0413_
*460 _0414_
*461 _0415_
*462 _0416_
*463 _0417_
*464 _0418_
*465 _0419_
*466 _0420_
*467 _0421_
*468 _0422_
*469 _0423_
*470 _0424_
*471 _0425_
*472 _0426_
*473 _0427_
*474 _0428_
*475 _0429_
*476 _0430_
*477 _0431_
*478 _0432_
*479 _0433_
*480 _0434_
*481 _0435_
*482 _0436_
*483 _0437_
*484 _0438_
*485 _0439_
*486 _0440_
*487 _0441_
*488 _0442_
*489 _0443_
*490 _0444_
*491 _0445_
*492 _0446_
*493 _0447_
*494 _0448_
*495 _0449_
*496 _0450_
*497 _0451_
*498 _0452_
*499 _0453_
*500 _0454_
*501 _0455_
*502 _0456_
*503 _0457_
*504 clknet_0_clk
*505 clknet_3_0__leaf_clk
*506 clknet_3_1__leaf_clk
*507 clknet_3_2__leaf_clk
*508 clknet_3_3__leaf_clk
*509 clknet_3_4__leaf_clk
*510 clknet_3_5__leaf_clk
*511 clknet_3_6__leaf_clk
*512 clknet_3_7__leaf_clk
*513 net1
*514 net100
*515 net2
*516 net23
*517 net24
*518 net25
*519 net26
*520 net27
*521 net28
*522 net29
*523 net3
*524 net30
*525 net31
*526 net32
*527 net33
*528 net34
*529 net35
*530 net36
*531 net37
*532 net38
*533 net39
*534 net4
*535 net40
*536 net41
*537 net42
*538 net43
*539 net44
*540 net45
*541 net46
*542 net47
*543 net48
*544 net49
*545 net5
*546 net50
*547 net51
*548 net52
*549 net53
*550 net54
*551 net55
*552 net56
*553 net57
*554 net58
*555 net59
*556 net6
*557 net60
*558 net61
*559 net62
*560 net63
*561 net64
*562 net65
*563 net66
*564 net67
*565 net68
*566 net69
*567 net7
*568 net70
*569 net71
*570 net72
*571 net73
*572 net74
*573 net75
*574 net76
*575 net77
*576 net78
*577 net79
*578 net8
*579 net80
*580 net81
*581 net82
*582 net83
*583 net84
*584 net85
*585 net86
*586 net87
*587 net88
*588 net89
*589 net9
*590 net90
*591 net91
*592 net92
*593 net93
*594 net94
*595 net95
*596 net96
*597 net97
*598 net98
*599 net99
*600 rgb_mixer\.debounce0_a\.button_hist\[0\]
*601 rgb_mixer\.debounce0_a\.button_hist\[1\]
*602 rgb_mixer\.debounce0_a\.button_hist\[2\]
*603 rgb_mixer\.debounce0_a\.button_hist\[3\]
*604 rgb_mixer\.debounce0_a\.button_hist\[4\]
*605 rgb_mixer\.debounce0_a\.button_hist\[5\]
*606 rgb_mixer\.debounce0_a\.button_hist\[6\]
*607 rgb_mixer\.debounce0_a\.button_hist\[7\]
*608 rgb_mixer\.debounce0_a\.debounced
*609 rgb_mixer\.debounce0_b\.button_hist\[0\]
*610 rgb_mixer\.debounce0_b\.button_hist\[1\]
*611 rgb_mixer\.debounce0_b\.button_hist\[2\]
*612 rgb_mixer\.debounce0_b\.button_hist\[3\]
*613 rgb_mixer\.debounce0_b\.button_hist\[4\]
*614 rgb_mixer\.debounce0_b\.button_hist\[5\]
*615 rgb_mixer\.debounce0_b\.button_hist\[6\]
*616 rgb_mixer\.debounce0_b\.button_hist\[7\]
*617 rgb_mixer\.debounce0_b\.debounced
*618 rgb_mixer\.debounce1_a\.button_hist\[0\]
*619 rgb_mixer\.debounce1_a\.button_hist\[1\]
*620 rgb_mixer\.debounce1_a\.button_hist\[2\]
*621 rgb_mixer\.debounce1_a\.button_hist\[3\]
*622 rgb_mixer\.debounce1_a\.button_hist\[4\]
*623 rgb_mixer\.debounce1_a\.button_hist\[5\]
*624 rgb_mixer\.debounce1_a\.button_hist\[6\]
*625 rgb_mixer\.debounce1_a\.button_hist\[7\]
*626 rgb_mixer\.debounce1_a\.debounced
*627 rgb_mixer\.debounce1_b\.button_hist\[0\]
*628 rgb_mixer\.debounce1_b\.button_hist\[1\]
*629 rgb_mixer\.debounce1_b\.button_hist\[2\]
*630 rgb_mixer\.debounce1_b\.button_hist\[3\]
*631 rgb_mixer\.debounce1_b\.button_hist\[4\]
*632 rgb_mixer\.debounce1_b\.button_hist\[5\]
*633 rgb_mixer\.debounce1_b\.button_hist\[6\]
*634 rgb_mixer\.debounce1_b\.button_hist\[7\]
*635 rgb_mixer\.debounce1_b\.debounced
*636 rgb_mixer\.debounce2_a\.button_hist\[0\]
*637 rgb_mixer\.debounce2_a\.button_hist\[1\]
*638 rgb_mixer\.debounce2_a\.button_hist\[2\]
*639 rgb_mixer\.debounce2_a\.button_hist\[3\]
*640 rgb_mixer\.debounce2_a\.button_hist\[4\]
*641 rgb_mixer\.debounce2_a\.button_hist\[5\]
*642 rgb_mixer\.debounce2_a\.button_hist\[6\]
*643 rgb_mixer\.debounce2_a\.button_hist\[7\]
*644 rgb_mixer\.debounce2_a\.debounced
*645 rgb_mixer\.debounce2_b\.button_hist\[0\]
*646 rgb_mixer\.debounce2_b\.button_hist\[1\]
*647 rgb_mixer\.debounce2_b\.button_hist\[2\]
*648 rgb_mixer\.debounce2_b\.button_hist\[3\]
*649 rgb_mixer\.debounce2_b\.button_hist\[4\]
*650 rgb_mixer\.debounce2_b\.button_hist\[5\]
*651 rgb_mixer\.debounce2_b\.button_hist\[6\]
*652 rgb_mixer\.debounce2_b\.button_hist\[7\]
*653 rgb_mixer\.debounce2_b\.debounced
*654 rgb_mixer\.enc0\[0\]
*655 rgb_mixer\.enc0\[1\]
*656 rgb_mixer\.enc0\[2\]
*657 rgb_mixer\.enc0\[3\]
*658 rgb_mixer\.enc0\[4\]
*659 rgb_mixer\.enc0\[5\]
*660 rgb_mixer\.enc0\[6\]
*661 rgb_mixer\.enc0\[7\]
*662 rgb_mixer\.enc1\[0\]
*663 rgb_mixer\.enc1\[1\]
*664 rgb_mixer\.enc1\[2\]
*665 rgb_mixer\.enc1\[3\]
*666 rgb_mixer\.enc1\[4\]
*667 rgb_mixer\.enc1\[5\]
*668 rgb_mixer\.enc1\[6\]
*669 rgb_mixer\.enc1\[7\]
*670 rgb_mixer\.enc2\[0\]
*671 rgb_mixer\.enc2\[1\]
*672 rgb_mixer\.enc2\[2\]
*673 rgb_mixer\.enc2\[3\]
*674 rgb_mixer\.enc2\[4\]
*675 rgb_mixer\.enc2\[5\]
*676 rgb_mixer\.enc2\[6\]
*677 rgb_mixer\.enc2\[7\]
*678 rgb_mixer\.encoder0\.old_a
*679 rgb_mixer\.encoder0\.old_b
*680 rgb_mixer\.encoder1\.old_a
*681 rgb_mixer\.encoder1\.old_b
*682 rgb_mixer\.encoder2\.old_a
*683 rgb_mixer\.encoder2\.old_b
*684 rgb_mixer\.pwm0\.count\[0\]
*685 rgb_mixer\.pwm0\.count\[1\]
*686 rgb_mixer\.pwm0\.count\[2\]
*687 rgb_mixer\.pwm0\.count\[3\]
*688 rgb_mixer\.pwm0\.count\[4\]
*689 rgb_mixer\.pwm0\.count\[5\]
*690 rgb_mixer\.pwm0\.count\[6\]
*691 rgb_mixer\.pwm0\.count\[7\]
*692 rgb_mixer\.pwm0\.out
*693 rgb_mixer\.pwm1\.count\[0\]
*694 rgb_mixer\.pwm1\.count\[1\]
*695 rgb_mixer\.pwm1\.count\[2\]
*696 rgb_mixer\.pwm1\.count\[3\]
*697 rgb_mixer\.pwm1\.count\[4\]
*698 rgb_mixer\.pwm1\.count\[5\]
*699 rgb_mixer\.pwm1\.count\[6\]
*700 rgb_mixer\.pwm1\.count\[7\]
*701 rgb_mixer\.pwm1\.out
*702 rgb_mixer\.pwm2\.count\[0\]
*703 rgb_mixer\.pwm2\.count\[1\]
*704 rgb_mixer\.pwm2\.count\[2\]
*705 rgb_mixer\.pwm2\.count\[3\]
*706 rgb_mixer\.pwm2\.count\[4\]
*707 rgb_mixer\.pwm2\.count\[5\]
*708 rgb_mixer\.pwm2\.count\[6\]
*709 rgb_mixer\.pwm2\.count\[7\]
*710 rgb_mixer\.pwm2\.out
*711 FILLER_0_0_109
*712 FILLER_0_0_113
*713 FILLER_0_0_125
*714 FILLER_0_0_137
*715 FILLER_0_0_141
*716 FILLER_0_0_15
*717 FILLER_0_0_153
*718 FILLER_0_0_165
*719 FILLER_0_0_169
*720 FILLER_0_0_181
*721 FILLER_0_0_193
*722 FILLER_0_0_197
*723 FILLER_0_0_209
*724 FILLER_0_0_221
*725 FILLER_0_0_225
*726 FILLER_0_0_237
*727 FILLER_0_0_249
*728 FILLER_0_0_253
*729 FILLER_0_0_265
*730 FILLER_0_0_27
*731 FILLER_0_0_277
*732 FILLER_0_0_281
*733 FILLER_0_0_29
*734 FILLER_0_0_293
*735 FILLER_0_0_3
*736 FILLER_0_0_305
*737 FILLER_0_0_309
*738 FILLER_0_0_321
*739 FILLER_0_0_333
*740 FILLER_0_0_41
*741 FILLER_0_0_53
*742 FILLER_0_0_57
*743 FILLER_0_0_69
*744 FILLER_0_0_81
*745 FILLER_0_0_85
*746 FILLER_0_0_97
*747 FILLER_0_10_109
*748 FILLER_0_10_121
*749 FILLER_0_10_133
*750 FILLER_0_10_139
*751 FILLER_0_10_141
*752 FILLER_0_10_15
*753 FILLER_0_10_153
*754 FILLER_0_10_165
*755 FILLER_0_10_177
*756 FILLER_0_10_189
*757 FILLER_0_10_195
*758 FILLER_0_10_197
*759 FILLER_0_10_209
*760 FILLER_0_10_221
*761 FILLER_0_10_233
*762 FILLER_0_10_245
*763 FILLER_0_10_251
*764 FILLER_0_10_253
*765 FILLER_0_10_265
*766 FILLER_0_10_27
*767 FILLER_0_10_277
*768 FILLER_0_10_289
*769 FILLER_0_10_29
*770 FILLER_0_10_3
*771 FILLER_0_10_301
*772 FILLER_0_10_307
*773 FILLER_0_10_309
*774 FILLER_0_10_321
*775 FILLER_0_10_333
*776 FILLER_0_10_41
*777 FILLER_0_10_53
*778 FILLER_0_10_65
*779 FILLER_0_10_77
*780 FILLER_0_10_83
*781 FILLER_0_10_85
*782 FILLER_0_10_97
*783 FILLER_0_11_105
*784 FILLER_0_11_111
*785 FILLER_0_11_113
*786 FILLER_0_11_125
*787 FILLER_0_11_137
*788 FILLER_0_11_149
*789 FILLER_0_11_15
*790 FILLER_0_11_161
*791 FILLER_0_11_167
*792 FILLER_0_11_169
*793 FILLER_0_11_181
*794 FILLER_0_11_193
*795 FILLER_0_11_205
*796 FILLER_0_11_217
*797 FILLER_0_11_223
*798 FILLER_0_11_225
*799 FILLER_0_11_237
*800 FILLER_0_11_249
*801 FILLER_0_11_261
*802 FILLER_0_11_27
*803 FILLER_0_11_273
*804 FILLER_0_11_279
*805 FILLER_0_11_281
*806 FILLER_0_11_293
*807 FILLER_0_11_3
*808 FILLER_0_11_305
*809 FILLER_0_11_317
*810 FILLER_0_11_329
*811 FILLER_0_11_39
*812 FILLER_0_11_51
*813 FILLER_0_11_55
*814 FILLER_0_11_57
*815 FILLER_0_11_69
*816 FILLER_0_11_81
*817 FILLER_0_11_93
*818 FILLER_0_12_109
*819 FILLER_0_12_121
*820 FILLER_0_12_133
*821 FILLER_0_12_139
*822 FILLER_0_12_141
*823 FILLER_0_12_15
*824 FILLER_0_12_153
*825 FILLER_0_12_165
*826 FILLER_0_12_177
*827 FILLER_0_12_189
*828 FILLER_0_12_195
*829 FILLER_0_12_197
*830 FILLER_0_12_209
*831 FILLER_0_12_221
*832 FILLER_0_12_234
*833 FILLER_0_12_246
*834 FILLER_0_12_253
*835 FILLER_0_12_265
*836 FILLER_0_12_27
*837 FILLER_0_12_277
*838 FILLER_0_12_289
*839 FILLER_0_12_29
*840 FILLER_0_12_3
*841 FILLER_0_12_301
*842 FILLER_0_12_307
*843 FILLER_0_12_309
*844 FILLER_0_12_321
*845 FILLER_0_12_333
*846 FILLER_0_12_41
*847 FILLER_0_12_53
*848 FILLER_0_12_65
*849 FILLER_0_12_77
*850 FILLER_0_12_83
*851 FILLER_0_12_85
*852 FILLER_0_12_97
*853 FILLER_0_13_110
*854 FILLER_0_13_113
*855 FILLER_0_13_125
*856 FILLER_0_13_137
*857 FILLER_0_13_149
*858 FILLER_0_13_15
*859 FILLER_0_13_161
*860 FILLER_0_13_167
*861 FILLER_0_13_169
*862 FILLER_0_13_181
*863 FILLER_0_13_193
*864 FILLER_0_13_205
*865 FILLER_0_13_217
*866 FILLER_0_13_257
*867 FILLER_0_13_269
*868 FILLER_0_13_27
*869 FILLER_0_13_277
*870 FILLER_0_13_281
*871 FILLER_0_13_291
*872 FILLER_0_13_3
*873 FILLER_0_13_303
*874 FILLER_0_13_315
*875 FILLER_0_13_327
*876 FILLER_0_13_39
*877 FILLER_0_13_51
*878 FILLER_0_13_55
*879 FILLER_0_13_57
*880 FILLER_0_13_62
*881 FILLER_0_13_74
*882 FILLER_0_13_86
*883 FILLER_0_13_98
*884 FILLER_0_14_109
*885 FILLER_0_14_114
*886 FILLER_0_14_126
*887 FILLER_0_14_138
*888 FILLER_0_14_141
*889 FILLER_0_14_15
*890 FILLER_0_14_153
*891 FILLER_0_14_161
*892 FILLER_0_14_167
*893 FILLER_0_14_179
*894 FILLER_0_14_191
*895 FILLER_0_14_195
*896 FILLER_0_14_197
*897 FILLER_0_14_209
*898 FILLER_0_14_234
*899 FILLER_0_14_261
*900 FILLER_0_14_269
*901 FILLER_0_14_27
*902 FILLER_0_14_29
*903 FILLER_0_14_3
*904 FILLER_0_14_304
*905 FILLER_0_14_325
*906 FILLER_0_14_333
*907 FILLER_0_14_41
*908 FILLER_0_14_74
*909 FILLER_0_14_82
*910 FILLER_0_14_85
*911 FILLER_0_14_97
*912 FILLER_0_15_130
*913 FILLER_0_15_142
*914 FILLER_0_15_15
*915 FILLER_0_15_150
*916 FILLER_0_15_185
*917 FILLER_0_15_192
*918 FILLER_0_15_198
*919 FILLER_0_15_215
*920 FILLER_0_15_222
*921 FILLER_0_15_225
*922 FILLER_0_15_255
*923 FILLER_0_15_259
*924 FILLER_0_15_276
*925 FILLER_0_15_284
*926 FILLER_0_15_298
*927 FILLER_0_15_3
*928 FILLER_0_15_31
*929 FILLER_0_15_330
*930 FILLER_0_15_334
*931 FILLER_0_15_49
*932 FILLER_0_15_55
*933 FILLER_0_15_81
*934 FILLER_0_15_93
*935 FILLER_0_16_101
*936 FILLER_0_16_11
*937 FILLER_0_16_135
*938 FILLER_0_16_139
*939 FILLER_0_16_141
*940 FILLER_0_16_156
*941 FILLER_0_16_238
*942 FILLER_0_16_248
*943 FILLER_0_16_258
*944 FILLER_0_16_284
*945 FILLER_0_16_29
*946 FILLER_0_16_3
*947 FILLER_0_16_307
*948 FILLER_0_16_309
*949 FILLER_0_16_329
*950 FILLER_0_16_93
*951 FILLER_0_17_104
*952 FILLER_0_17_113
*953 FILLER_0_17_141
*954 FILLER_0_17_167
*955 FILLER_0_17_175
*956 FILLER_0_17_187
*957 FILLER_0_17_194
*958 FILLER_0_17_225
*959 FILLER_0_17_242
*960 FILLER_0_17_256
*961 FILLER_0_17_278
*962 FILLER_0_17_281
*963 FILLER_0_17_298
*964 FILLER_0_17_3
*965 FILLER_0_17_302
*966 FILLER_0_17_334
*967 FILLER_0_17_46
*968 FILLER_0_17_54
*969 FILLER_0_17_57
*970 FILLER_0_17_7
*971 FILLER_0_17_86
*972 FILLER_0_18_100
*973 FILLER_0_18_108
*974 FILLER_0_18_11
*975 FILLER_0_18_118
*976 FILLER_0_18_136
*977 FILLER_0_18_141
*978 FILLER_0_18_166
*979 FILLER_0_18_17
*980 FILLER_0_18_178
*981 FILLER_0_18_186
*982 FILLER_0_18_190
*983 FILLER_0_18_197
*984 FILLER_0_18_202
*985 FILLER_0_18_214
*986 FILLER_0_18_23
*987 FILLER_0_18_251
*988 FILLER_0_18_264
*989 FILLER_0_18_268
*990 FILLER_0_18_27
*991 FILLER_0_18_279
*992 FILLER_0_18_299
*993 FILLER_0_18_3
*994 FILLER_0_18_325
*995 FILLER_0_18_44
*996 FILLER_0_18_56
*997 FILLER_0_18_83
*998 FILLER_0_18_88
*999 FILLER_0_19_11
*1000 FILLER_0_19_111
*1001 FILLER_0_19_113
*1002 FILLER_0_19_119
*1003 FILLER_0_19_133
*1004 FILLER_0_19_144
*1005 FILLER_0_19_165
*1006 FILLER_0_19_169
*1007 FILLER_0_19_181
*1008 FILLER_0_19_207
*1009 FILLER_0_19_215
*1010 FILLER_0_19_241
*1011 FILLER_0_19_259
*1012 FILLER_0_19_263
*1013 FILLER_0_19_291
*1014 FILLER_0_19_3
*1015 FILLER_0_19_302
*1016 FILLER_0_19_310
*1017 FILLER_0_19_318
*1018 FILLER_0_19_330
*1019 FILLER_0_19_334
*1020 FILLER_0_19_45
*1021 FILLER_0_19_53
*1022 FILLER_0_19_57
*1023 FILLER_0_19_61
*1024 FILLER_0_19_84
*1025 FILLER_0_19_96
*1026 FILLER_0_1_105
*1027 FILLER_0_1_111
*1028 FILLER_0_1_113
*1029 FILLER_0_1_125
*1030 FILLER_0_1_137
*1031 FILLER_0_1_149
*1032 FILLER_0_1_15
*1033 FILLER_0_1_161
*1034 FILLER_0_1_167
*1035 FILLER_0_1_169
*1036 FILLER_0_1_181
*1037 FILLER_0_1_193
*1038 FILLER_0_1_205
*1039 FILLER_0_1_217
*1040 FILLER_0_1_223
*1041 FILLER_0_1_225
*1042 FILLER_0_1_237
*1043 FILLER_0_1_249
*1044 FILLER_0_1_261
*1045 FILLER_0_1_27
*1046 FILLER_0_1_273
*1047 FILLER_0_1_279
*1048 FILLER_0_1_281
*1049 FILLER_0_1_293
*1050 FILLER_0_1_3
*1051 FILLER_0_1_305
*1052 FILLER_0_1_317
*1053 FILLER_0_1_329
*1054 FILLER_0_1_39
*1055 FILLER_0_1_51
*1056 FILLER_0_1_55
*1057 FILLER_0_1_57
*1058 FILLER_0_1_69
*1059 FILLER_0_1_81
*1060 FILLER_0_1_93
*1061 FILLER_0_20_114
*1062 FILLER_0_20_136
*1063 FILLER_0_20_141
*1064 FILLER_0_20_15
*1065 FILLER_0_20_153
*1066 FILLER_0_20_176
*1067 FILLER_0_20_197
*1068 FILLER_0_20_214
*1069 FILLER_0_20_250
*1070 FILLER_0_20_256
*1071 FILLER_0_20_26
*1072 FILLER_0_20_271
*1073 FILLER_0_20_296
*1074 FILLER_0_20_3
*1075 FILLER_0_20_309
*1076 FILLER_0_20_315
*1077 FILLER_0_20_323
*1078 FILLER_0_20_35
*1079 FILLER_0_20_52
*1080 FILLER_0_20_66
*1081 FILLER_0_20_70
*1082 FILLER_0_20_80
*1083 FILLER_0_20_85
*1084 FILLER_0_20_97
*1085 FILLER_0_21_11
*1086 FILLER_0_21_113
*1087 FILLER_0_21_144
*1088 FILLER_0_21_150
*1089 FILLER_0_21_165
*1090 FILLER_0_21_177
*1091 FILLER_0_21_185
*1092 FILLER_0_21_191
*1093 FILLER_0_21_208
*1094 FILLER_0_21_281
*1095 FILLER_0_21_291
*1096 FILLER_0_21_3
*1097 FILLER_0_21_303
*1098 FILLER_0_21_307
*1099 FILLER_0_21_324
*1100 FILLER_0_21_334
*1101 FILLER_0_21_44
*1102 FILLER_0_21_55
*1103 FILLER_0_21_57
*1104 FILLER_0_21_65
*1105 FILLER_0_22_105
*1106 FILLER_0_22_111
*1107 FILLER_0_22_144
*1108 FILLER_0_22_15
*1109 FILLER_0_22_156
*1110 FILLER_0_22_168
*1111 FILLER_0_22_180
*1112 FILLER_0_22_188
*1113 FILLER_0_22_194
*1114 FILLER_0_22_197
*1115 FILLER_0_22_204
*1116 FILLER_0_22_21
*1117 FILLER_0_22_210
*1118 FILLER_0_22_219
*1119 FILLER_0_22_231
*1120 FILLER_0_22_239
*1121 FILLER_0_22_250
*1122 FILLER_0_22_253
*1123 FILLER_0_22_261
*1124 FILLER_0_22_27
*1125 FILLER_0_22_29
*1126 FILLER_0_22_295
*1127 FILLER_0_22_299
*1128 FILLER_0_22_3
*1129 FILLER_0_22_333
*1130 FILLER_0_22_41
*1131 FILLER_0_22_45
*1132 FILLER_0_22_62
*1133 FILLER_0_22_74
*1134 FILLER_0_23_100
*1135 FILLER_0_23_113
*1136 FILLER_0_23_121
*1137 FILLER_0_23_140
*1138 FILLER_0_23_165
*1139 FILLER_0_23_169
*1140 FILLER_0_23_173
*1141 FILLER_0_23_196
*1142 FILLER_0_23_241
*1143 FILLER_0_23_253
*1144 FILLER_0_23_278
*1145 FILLER_0_23_291
*1146 FILLER_0_23_3
*1147 FILLER_0_23_303
*1148 FILLER_0_23_31
*1149 FILLER_0_23_325
*1150 FILLER_0_23_43
*1151 FILLER_0_23_55
*1152 FILLER_0_23_65
*1153 FILLER_0_23_77
*1154 FILLER_0_23_81
*1155 FILLER_0_24_102
*1156 FILLER_0_24_114
*1157 FILLER_0_24_139
*1158 FILLER_0_24_141
*1159 FILLER_0_24_149
*1160 FILLER_0_24_168
*1161 FILLER_0_24_195
*1162 FILLER_0_24_205
*1163 FILLER_0_24_211
*1164 FILLER_0_24_238
*1165 FILLER_0_24_250
*1166 FILLER_0_24_253
*1167 FILLER_0_24_26
*1168 FILLER_0_24_283
*1169 FILLER_0_24_295
*1170 FILLER_0_24_3
*1171 FILLER_0_24_307
*1172 FILLER_0_24_331
*1173 FILLER_0_24_35
*1174 FILLER_0_24_73
*1175 FILLER_0_24_81
*1176 FILLER_0_24_88
*1177 FILLER_0_25_105
*1178 FILLER_0_25_119
*1179 FILLER_0_25_131
*1180 FILLER_0_25_146
*1181 FILLER_0_25_15
*1182 FILLER_0_25_154
*1183 FILLER_0_25_163
*1184 FILLER_0_25_167
*1185 FILLER_0_25_169
*1186 FILLER_0_25_206
*1187 FILLER_0_25_218
*1188 FILLER_0_25_23
*1189 FILLER_0_25_244
*1190 FILLER_0_25_256
*1191 FILLER_0_25_295
*1192 FILLER_0_25_3
*1193 FILLER_0_25_303
*1194 FILLER_0_25_321
*1195 FILLER_0_25_333
*1196 FILLER_0_25_40
*1197 FILLER_0_25_57
*1198 FILLER_0_25_69
*1199 FILLER_0_26_127
*1200 FILLER_0_26_139
*1201 FILLER_0_26_141
*1202 FILLER_0_26_15
*1203 FILLER_0_26_163
*1204 FILLER_0_26_169
*1205 FILLER_0_26_213
*1206 FILLER_0_26_221
*1207 FILLER_0_26_23
*1208 FILLER_0_26_239
*1209 FILLER_0_26_264
*1210 FILLER_0_26_27
*1211 FILLER_0_26_288
*1212 FILLER_0_26_3
*1213 FILLER_0_26_300
*1214 FILLER_0_26_309
*1215 FILLER_0_26_332
*1216 FILLER_0_26_35
*1217 FILLER_0_26_41
*1218 FILLER_0_26_45
*1219 FILLER_0_26_74
*1220 FILLER_0_26_82
*1221 FILLER_0_26_85
*1222 FILLER_0_26_97
*1223 FILLER_0_27_111
*1224 FILLER_0_27_119
*1225 FILLER_0_27_131
*1226 FILLER_0_27_166
*1227 FILLER_0_27_177
*1228 FILLER_0_27_213
*1229 FILLER_0_27_221
*1230 FILLER_0_27_225
*1231 FILLER_0_27_234
*1232 FILLER_0_27_246
*1233 FILLER_0_27_279
*1234 FILLER_0_27_289
*1235 FILLER_0_27_295
*1236 FILLER_0_27_3
*1237 FILLER_0_27_333
*1238 FILLER_0_27_46
*1239 FILLER_0_27_54
*1240 FILLER_0_27_57
*1241 FILLER_0_27_65
*1242 FILLER_0_27_74
*1243 FILLER_0_27_86
*1244 FILLER_0_27_98
*1245 FILLER_0_28_11
*1246 FILLER_0_28_116
*1247 FILLER_0_28_128
*1248 FILLER_0_28_166
*1249 FILLER_0_28_173
*1250 FILLER_0_28_181
*1251 FILLER_0_28_202
*1252 FILLER_0_28_227
*1253 FILLER_0_28_239
*1254 FILLER_0_28_247
*1255 FILLER_0_28_269
*1256 FILLER_0_28_286
*1257 FILLER_0_28_298
*1258 FILLER_0_28_3
*1259 FILLER_0_28_333
*1260 FILLER_0_28_40
*1261 FILLER_0_28_52
*1262 FILLER_0_28_60
*1263 FILLER_0_28_78
*1264 FILLER_0_28_85
*1265 FILLER_0_29_107
*1266 FILLER_0_29_11
*1267 FILLER_0_29_111
*1268 FILLER_0_29_129
*1269 FILLER_0_29_141
*1270 FILLER_0_29_149
*1271 FILLER_0_29_157
*1272 FILLER_0_29_165
*1273 FILLER_0_29_169
*1274 FILLER_0_29_201
*1275 FILLER_0_29_210
*1276 FILLER_0_29_222
*1277 FILLER_0_29_225
*1278 FILLER_0_29_229
*1279 FILLER_0_29_238
*1280 FILLER_0_29_250
*1281 FILLER_0_29_289
*1282 FILLER_0_29_298
*1283 FILLER_0_29_3
*1284 FILLER_0_29_310
*1285 FILLER_0_29_329
*1286 FILLER_0_29_47
*1287 FILLER_0_29_57
*1288 FILLER_0_29_61
*1289 FILLER_0_29_78
*1290 FILLER_0_29_92
*1291 FILLER_0_2_109
*1292 FILLER_0_2_121
*1293 FILLER_0_2_133
*1294 FILLER_0_2_139
*1295 FILLER_0_2_141
*1296 FILLER_0_2_15
*1297 FILLER_0_2_153
*1298 FILLER_0_2_165
*1299 FILLER_0_2_177
*1300 FILLER_0_2_189
*1301 FILLER_0_2_195
*1302 FILLER_0_2_197
*1303 FILLER_0_2_209
*1304 FILLER_0_2_221
*1305 FILLER_0_2_233
*1306 FILLER_0_2_245
*1307 FILLER_0_2_251
*1308 FILLER_0_2_253
*1309 FILLER_0_2_265
*1310 FILLER_0_2_27
*1311 FILLER_0_2_277
*1312 FILLER_0_2_289
*1313 FILLER_0_2_29
*1314 FILLER_0_2_3
*1315 FILLER_0_2_301
*1316 FILLER_0_2_307
*1317 FILLER_0_2_309
*1318 FILLER_0_2_321
*1319 FILLER_0_2_333
*1320 FILLER_0_2_41
*1321 FILLER_0_2_53
*1322 FILLER_0_2_65
*1323 FILLER_0_2_77
*1324 FILLER_0_2_83
*1325 FILLER_0_2_85
*1326 FILLER_0_2_97
*1327 FILLER_0_30_108
*1328 FILLER_0_30_141
*1329 FILLER_0_30_149
*1330 FILLER_0_30_15
*1331 FILLER_0_30_166
*1332 FILLER_0_30_170
*1333 FILLER_0_30_19
*1334 FILLER_0_30_205
*1335 FILLER_0_30_24
*1336 FILLER_0_30_245
*1337 FILLER_0_30_29
*1338 FILLER_0_30_291
*1339 FILLER_0_30_3
*1340 FILLER_0_30_309
*1341 FILLER_0_30_334
*1342 FILLER_0_30_37
*1343 FILLER_0_30_41
*1344 FILLER_0_30_52
*1345 FILLER_0_30_56
*1346 FILLER_0_30_83
*1347 FILLER_0_31_113
*1348 FILLER_0_31_117
*1349 FILLER_0_31_150
*1350 FILLER_0_31_164
*1351 FILLER_0_31_169
*1352 FILLER_0_31_183
*1353 FILLER_0_31_208
*1354 FILLER_0_31_216
*1355 FILLER_0_31_225
*1356 FILLER_0_31_231
*1357 FILLER_0_31_252
*1358 FILLER_0_31_263
*1359 FILLER_0_31_284
*1360 FILLER_0_31_296
*1361 FILLER_0_31_3
*1362 FILLER_0_31_326
*1363 FILLER_0_31_334
*1364 FILLER_0_31_36
*1365 FILLER_0_31_48
*1366 FILLER_0_31_57
*1367 FILLER_0_31_95
*1368 FILLER_0_32_120
*1369 FILLER_0_32_132
*1370 FILLER_0_32_141
*1371 FILLER_0_32_163
*1372 FILLER_0_32_175
*1373 FILLER_0_32_183
*1374 FILLER_0_32_197
*1375 FILLER_0_32_209
*1376 FILLER_0_32_217
*1377 FILLER_0_32_226
*1378 FILLER_0_32_246
*1379 FILLER_0_32_25
*1380 FILLER_0_32_253
*1381 FILLER_0_32_265
*1382 FILLER_0_32_285
*1383 FILLER_0_32_297
*1384 FILLER_0_32_3
*1385 FILLER_0_32_309
*1386 FILLER_0_32_334
*1387 FILLER_0_32_40
*1388 FILLER_0_32_52
*1389 FILLER_0_32_64
*1390 FILLER_0_32_75
*1391 FILLER_0_32_83
*1392 FILLER_0_32_85
*1393 FILLER_0_32_93
*1394 FILLER_0_32_99
*1395 FILLER_0_33_106
*1396 FILLER_0_33_11
*1397 FILLER_0_33_113
*1398 FILLER_0_33_125
*1399 FILLER_0_33_133
*1400 FILLER_0_33_154
*1401 FILLER_0_33_166
*1402 FILLER_0_33_169
*1403 FILLER_0_33_181
*1404 FILLER_0_33_187
*1405 FILLER_0_33_191
*1406 FILLER_0_33_200
*1407 FILLER_0_33_212
*1408 FILLER_0_33_225
*1409 FILLER_0_33_229
*1410 FILLER_0_33_264
*1411 FILLER_0_33_279
*1412 FILLER_0_33_284
*1413 FILLER_0_33_296
*1414 FILLER_0_33_3
*1415 FILLER_0_33_302
*1416 FILLER_0_33_324
*1417 FILLER_0_33_333
*1418 FILLER_0_33_34
*1419 FILLER_0_33_46
*1420 FILLER_0_33_66
*1421 FILLER_0_33_78
*1422 FILLER_0_34_106
*1423 FILLER_0_34_114
*1424 FILLER_0_34_126
*1425 FILLER_0_34_134
*1426 FILLER_0_34_15
*1427 FILLER_0_34_154
*1428 FILLER_0_34_166
*1429 FILLER_0_34_174
*1430 FILLER_0_34_194
*1431 FILLER_0_34_202
*1432 FILLER_0_34_211
*1433 FILLER_0_34_244
*1434 FILLER_0_34_253
*1435 FILLER_0_34_265
*1436 FILLER_0_34_283
*1437 FILLER_0_34_295
*1438 FILLER_0_34_3
*1439 FILLER_0_34_303
*1440 FILLER_0_34_309
*1441 FILLER_0_34_327
*1442 FILLER_0_34_42
*1443 FILLER_0_34_52
*1444 FILLER_0_34_70
*1445 FILLER_0_34_82
*1446 FILLER_0_34_85
*1447 FILLER_0_34_95
*1448 FILLER_0_35_104
*1449 FILLER_0_35_120
*1450 FILLER_0_35_132
*1451 FILLER_0_35_138
*1452 FILLER_0_35_15
*1453 FILLER_0_35_155
*1454 FILLER_0_35_167
*1455 FILLER_0_35_169
*1456 FILLER_0_35_209
*1457 FILLER_0_35_217
*1458 FILLER_0_35_25
*1459 FILLER_0_35_251
*1460 FILLER_0_35_279
*1461 FILLER_0_35_281
*1462 FILLER_0_35_285
*1463 FILLER_0_35_296
*1464 FILLER_0_35_3
*1465 FILLER_0_35_33
*1466 FILLER_0_35_330
*1467 FILLER_0_35_334
*1468 FILLER_0_35_45
*1469 FILLER_0_35_53
*1470 FILLER_0_35_64
*1471 FILLER_0_35_70
*1472 FILLER_0_35_75
*1473 FILLER_0_35_81
*1474 FILLER_0_35_89
*1475 FILLER_0_36_105
*1476 FILLER_0_36_11
*1477 FILLER_0_36_134
*1478 FILLER_0_36_141
*1479 FILLER_0_36_150
*1480 FILLER_0_36_161
*1481 FILLER_0_36_173
*1482 FILLER_0_36_195
*1483 FILLER_0_36_202
*1484 FILLER_0_36_214
*1485 FILLER_0_36_251
*1486 FILLER_0_36_253
*1487 FILLER_0_36_265
*1488 FILLER_0_36_27
*1489 FILLER_0_36_3
*1490 FILLER_0_36_303
*1491 FILLER_0_36_307
*1492 FILLER_0_36_309
*1493 FILLER_0_36_42
*1494 FILLER_0_36_48
*1495 FILLER_0_36_56
*1496 FILLER_0_36_60
*1497 FILLER_0_36_65
*1498 FILLER_0_36_85
*1499 FILLER_0_36_93
*1500 FILLER_0_37_104
*1501 FILLER_0_37_11
*1502 FILLER_0_37_113
*1503 FILLER_0_37_132
*1504 FILLER_0_37_140
*1505 FILLER_0_37_175
*1506 FILLER_0_37_212
*1507 FILLER_0_37_246
*1508 FILLER_0_37_258
*1509 FILLER_0_37_286
*1510 FILLER_0_37_295
*1511 FILLER_0_37_3
*1512 FILLER_0_37_304
*1513 FILLER_0_37_41
*1514 FILLER_0_37_57
*1515 FILLER_0_37_75
*1516 FILLER_0_38_10
*1517 FILLER_0_38_104
*1518 FILLER_0_38_113
*1519 FILLER_0_38_127
*1520 FILLER_0_38_134
*1521 FILLER_0_38_14
*1522 FILLER_0_38_144
*1523 FILLER_0_38_150
*1524 FILLER_0_38_154
*1525 FILLER_0_38_158
*1526 FILLER_0_38_162
*1527 FILLER_0_38_166
*1528 FILLER_0_38_169
*1529 FILLER_0_38_18
*1530 FILLER_0_38_181
*1531 FILLER_0_38_193
*1532 FILLER_0_38_197
*1533 FILLER_0_38_209
*1534 FILLER_0_38_22
*1535 FILLER_0_38_225
*1536 FILLER_0_38_240
*1537 FILLER_0_38_253
*1538 FILLER_0_38_269
*1539 FILLER_0_38_279
*1540 FILLER_0_38_287
*1541 FILLER_0_38_294
*1542 FILLER_0_38_307
*1543 FILLER_0_38_32
*1544 FILLER_0_38_322
*1545 FILLER_0_38_333
*1546 FILLER_0_38_38
*1547 FILLER_0_38_42
*1548 FILLER_0_38_46
*1549 FILLER_0_38_50
*1550 FILLER_0_38_54
*1551 FILLER_0_38_57
*1552 FILLER_0_38_6
*1553 FILLER_0_38_62
*1554 FILLER_0_38_74
*1555 FILLER_0_38_82
*1556 FILLER_0_38_92
*1557 FILLER_0_3_105
*1558 FILLER_0_3_111
*1559 FILLER_0_3_113
*1560 FILLER_0_3_125
*1561 FILLER_0_3_137
*1562 FILLER_0_3_149
*1563 FILLER_0_3_15
*1564 FILLER_0_3_161
*1565 FILLER_0_3_167
*1566 FILLER_0_3_169
*1567 FILLER_0_3_181
*1568 FILLER_0_3_193
*1569 FILLER_0_3_205
*1570 FILLER_0_3_217
*1571 FILLER_0_3_223
*1572 FILLER_0_3_225
*1573 FILLER_0_3_237
*1574 FILLER_0_3_249
*1575 FILLER_0_3_261
*1576 FILLER_0_3_27
*1577 FILLER_0_3_273
*1578 FILLER_0_3_279