*SPEF "ieee 1481-1999"
*DESIGN "tt_um_mattvenn_rgb_mixer"
*DATE "11:11:11 Fri 11 11, 1111"
*VENDOR "OpenRCX"
*PROGRAM "Parallel Extraction"
*VERSION "1.0"
*DESIGN_FLOW "NAME_SCOPE LOCAL" "PIN_CAP NONE"
*DIVIDER /
*DELIMITER :
*BUS_DELIMITER []
*T_UNIT 1 NS
*C_UNIT 1 PF
*R_UNIT 1 OHM
*L_UNIT 1 HENRY

*NAME_MAP
*3 clk
*4 ena
*5 rst_n
*6 ui_in[0]
*7 ui_in[1]
*8 ui_in[2]
*9 ui_in[3]
*10 ui_in[4]
*11 ui_in[5]
*12 ui_in[6]
*13 ui_in[7]
*14 uio_in[0]
*15 uio_in[1]
*16 uio_in[2]
*17 uio_in[3]
*18 uio_in[4]
*19 uio_in[5]
*20 uio_in[6]
*21 uio_in[7]
*22 net8
*23 net9
*24 net10
*25 net11
*26 net12
*27 net13
*28 net14
*29 net15
*30 net16
*31 net17
*32 net18
*33 net19
*34 net20
*35 net21
*36 net22
*37 net23
*38 uo_out[0]
*39 uo_out[1]
*40 uo_out[2]
*41 net24
*42 net25
*43 net26
*44 net27
*45 net28
*46 _000_
*47 _001_
*48 _002_
*49 _003_
*50 _004_
*51 _005_
*52 _006_
*53 _007_
*54 _008_
*55 _009_
*56 _010_
*57 _011_
*58 _012_
*59 _013_
*60 _014_
*61 _015_
*62 _016_
*63 _017_
*64 _018_
*65 _019_
*66 _020_
*67 _021_
*68 _022_
*69 _023_
*70 _024_
*71 _025_
*72 _026_
*73 _027_
*74 _028_
*75 _029_
*76 _030_
*77 _031_
*78 _032_
*79 _033_
*80 _034_
*81 _035_
*82 _036_
*83 _037_
*84 _038_
*85 _039_
*86 _040_
*87 _041_
*88 _042_
*89 _043_
*90 _044_
*91 _045_
*92 _046_
*93 _047_
*94 _048_
*95 _049_
*96 _050_
*97 _051_
*98 _052_
*99 _053_
*100 _054_
*101 _055_
*102 _056_
*103 _057_
*104 _058_
*105 _059_
*106 _060_
*107 _061_
*108 _062_
*109 _063_
*110 _064_
*111 _065_
*112 _066_
*113 _067_
*114 _068_
*115 _069_
*116 _070_
*117 _071_
*118 _072_
*119 _073_
*120 _074_
*121 _075_
*122 _076_
*123 _077_
*124 _078_
*125 _079_
*126 _080_
*127 _081_
*128 _082_
*129 _083_
*130 _084_
*131 _085_
*132 _086_
*133 _087_
*134 _088_
*135 _089_
*136 _090_
*137 _091_
*138 _092_
*139 _093_
*140 _094_
*141 _095_
*142 _096_
*143 _097_
*144 _098_
*145 _099_
*146 _100_
*147 _101_
*148 _102_
*149 _103_
*150 _104_
*151 _105_
*152 _106_
*153 _107_
*154 _108_
*155 _109_
*156 _110_
*157 _111_
*158 _112_
*159 _113_
*160 _114_
*161 _115_
*162 _116_
*163 _117_
*164 _118_
*165 _119_
*166 _120_
*167 _121_
*168 _122_
*169 _123_
*170 _124_
*171 _125_
*172 _126_
*173 _127_
*174 _128_
*175 _129_
*176 _130_
*177 _131_
*178 _132_
*179 _133_
*180 _134_
*181 _135_
*182 _136_
*183 _137_
*184 _138_
*185 _139_
*186 _140_
*187 _141_
*188 _142_
*189 _143_
*190 _144_
*191 _145_
*192 _146_
*193 _147_
*194 _148_
*195 _149_
*196 _150_
*197 _151_
*198 _152_
*199 _153_
*200 _154_
*201 _155_
*202 _156_
*203 _157_
*204 _158_
*205 _159_
*206 _160_
*207 _161_
*208 _162_
*209 _163_
*210 _164_
*211 _165_
*212 _166_
*213 _167_
*214 _168_
*215 _169_
*216 _170_
*217 _171_
*218 _172_
*219 _173_
*220 _174_
*221 _175_
*222 _176_
*223 _177_
*224 _178_
*225 _179_
*226 _180_
*227 _181_
*228 _182_
*229 _183_
*230 _184_
*231 _185_
*232 _186_
*233 _187_
*234 _188_
*235 _189_
*236 _190_
*237 _191_
*238 _192_
*239 _193_
*240 _194_
*241 _195_
*242 _196_
*243 _197_
*244 _198_
*245 _199_
*246 _200_
*247 _201_
*248 _202_
*249 _203_
*250 _204_
*251 _205_
*252 _206_
*253 _207_
*254 _208_
*255 _209_
*256 _210_
*257 _211_
*258 _212_
*259 _213_
*260 _214_
*261 _215_
*262 _216_
*263 _217_
*264 _218_
*265 _219_
*266 _220_
*267 _221_
*268 _222_
*269 _223_
*270 _224_
*271 _225_
*272 _226_
*273 _227_
*274 _228_
*275 _229_
*276 _230_
*277 _231_
*278 _232_
*279 _233_
*280 _234_
*281 _235_
*282 _236_
*283 _237_
*284 _238_
*285 _239_
*286 _240_
*287 _241_
*288 _242_
*289 _243_
*290 _244_
*291 _245_
*292 _246_
*293 _247_
*294 _248_
*295 _249_
*296 _250_
*297 _251_
*298 _252_
*299 _253_
*300 _254_
*301 _255_
*302 _256_
*303 _257_
*304 _258_
*305 _259_
*306 _260_
*307 _261_
*308 _262_
*309 _263_
*310 _264_
*311 _265_
*312 _266_
*313 _267_
*314 _268_
*315 _269_
*316 _270_
*317 _271_
*318 _272_
*319 _273_
*320 _274_
*321 _275_
*322 _276_
*323 _277_
*324 _278_
*325 _279_
*326 _280_
*327 _281_
*328 _282_
*329 _283_
*330 _284_
*331 _285_
*332 _286_
*333 _287_
*334 _288_
*335 _289_
*336 _290_
*337 _291_
*338 _292_
*339 _293_
*340 _294_
*341 _295_
*342 _296_
*343 _297_
*344 _298_
*345 _299_
*346 _300_
*347 _301_
*348 _302_
*349 _303_
*350 _304_
*351 _305_
*352 _306_
*353 _307_
*354 _308_
*355 _309_
*356 _310_
*357 _311_
*358 _312_
*359 _313_
*360 _314_
*361 _315_
*362 _316_
*363 _317_
*364 _318_
*365 _319_
*366 _320_
*367 _321_
*368 _322_
*369 _323_
*370 _324_
*371 _325_
*372 _326_
*373 _327_
*374 _328_
*375 _329_
*376 _330_
*377 _331_
*378 _332_
*379 _333_
*380 _334_
*381 _335_
*382 _336_
*383 _337_
*384 _338_
*385 _339_
*386 _340_
*387 _341_
*388 _342_
*389 _343_
*390 _344_
*391 _345_
*392 _346_
*393 _347_
*394 _348_
*395 _349_
*396 _350_
*397 _351_
*398 _352_
*399 _353_
*400 _354_
*401 _355_
*402 _356_
*403 _357_
*404 _358_
*405 _359_
*406 _360_
*407 _361_
*408 _362_
*409 _363_
*410 _364_
*411 _365_
*412 _366_
*413 _367_
*414 _368_
*415 _369_
*416 _370_
*417 _371_
*418 _372_
*419 _373_
*420 _374_
*421 _375_
*422 _376_
*423 _377_
*424 _378_
*425 _379_
*426 _380_
*427 _381_
*428 _382_
*429 _383_
*430 _384_
*431 _385_
*432 _386_
*433 _387_
*434 _388_
*435 _389_
*436 _390_
*437 _391_
*438 _392_
*439 _393_
*440 _394_
*441 _395_
*442 _396_
*443 _397_
*444 _398_
*445 _399_
*446 _400_
*447 _401_
*448 _402_
*449 _403_
*450 _404_
*451 _405_
*452 _406_
*453 _407_
*454 _408_
*455 _409_
*456 _410_
*457 _411_
*458 _412_
*459 _413_
*460 _414_
*461 _415_
*462 _416_
*463 _417_
*464 _418_
*465 _419_
*466 _420_
*467 _421_
*468 _422_
*469 _423_
*470 _424_
*471 _425_
*472 _426_
*473 _427_
*474 _428_
*475 _429_
*476 clknet_0_clk
*477 clknet_3_0__leaf_clk
*478 clknet_3_1__leaf_clk
*479 clknet_3_2__leaf_clk
*480 clknet_3_3__leaf_clk
*481 clknet_3_4__leaf_clk
*482 clknet_3_5__leaf_clk
*483 clknet_3_6__leaf_clk
*484 clknet_3_7__leaf_clk
*485 net1
*486 net100
*487 net101
*488 net102
*489 net103
*490 net104
*491 net105
*492 net2
*493 net29
*494 net3
*495 net30
*496 net31
*497 net32
*498 net33
*499 net34
*500 net35
*501 net36
*502 net37
*503 net38
*504 net39
*505 net4
*506 net40
*507 net41
*508 net42
*509 net43
*510 net44
*511 net45
*512 net46
*513 net47
*514 net48
*515 net49
*516 net5
*517 net50
*518 net51
*519 net52
*520 net53
*521 net54
*522 net55
*523 net56
*524 net57
*525 net58
*526 net59
*527 net6
*528 net60
*529 net61
*530 net62
*531 net63
*532 net64
*533 net65
*534 net66
*535 net67
*536 net68
*537 net69
*538 net7
*539 net70
*540 net71
*541 net72
*542 net73
*543 net74
*544 net75
*545 net76
*546 net77
*547 net78
*548 net79
*549 net80
*550 net81
*551 net82
*552 net83
*553 net84
*554 net85
*555 net86
*556 net87
*557 net88
*558 net89
*559 net90
*560 net91
*561 net92
*562 net93
*563 net94
*564 net95
*565 net96
*566 net97
*567 net98
*568 net99
*569 rgb_mixer\.debounce0_a\.button_hist\[0\]
*570 rgb_mixer\.debounce0_a\.button_hist\[1\]
*571 rgb_mixer\.debounce0_a\.button_hist\[2\]
*572 rgb_mixer\.debounce0_a\.button_hist\[3\]
*573 rgb_mixer\.debounce0_a\.button_hist\[4\]
*574 rgb_mixer\.debounce0_a\.button_hist\[5\]
*575 rgb_mixer\.debounce0_a\.button_hist\[6\]
*576 rgb_mixer\.debounce0_a\.button_hist\[7\]
*577 rgb_mixer\.debounce0_a\.debounced
*578 rgb_mixer\.debounce0_b\.button_hist\[0\]
*579 rgb_mixer\.debounce0_b\.button_hist\[1\]
*580 rgb_mixer\.debounce0_b\.button_hist\[2\]
*581 rgb_mixer\.debounce0_b\.button_hist\[3\]
*582 rgb_mixer\.debounce0_b\.button_hist\[4\]
*583 rgb_mixer\.debounce0_b\.button_hist\[5\]
*584 rgb_mixer\.debounce0_b\.button_hist\[6\]
*585 rgb_mixer\.debounce0_b\.button_hist\[7\]
*586 rgb_mixer\.debounce0_b\.debounced
*587 rgb_mixer\.debounce1_a\.button_hist\[0\]
*588 rgb_mixer\.debounce1_a\.button_hist\[1\]
*589 rgb_mixer\.debounce1_a\.button_hist\[2\]
*590 rgb_mixer\.debounce1_a\.button_hist\[3\]
*591 rgb_mixer\.debounce1_a\.button_hist\[4\]
*592 rgb_mixer\.debounce1_a\.button_hist\[5\]
*593 rgb_mixer\.debounce1_a\.button_hist\[6\]
*594 rgb_mixer\.debounce1_a\.button_hist\[7\]
*595 rgb_mixer\.debounce1_a\.debounced
*596 rgb_mixer\.debounce1_b\.button_hist\[0\]
*597 rgb_mixer\.debounce1_b\.button_hist\[1\]
*598 rgb_mixer\.debounce1_b\.button_hist\[2\]
*599 rgb_mixer\.debounce1_b\.button_hist\[3\]
*600 rgb_mixer\.debounce1_b\.button_hist\[4\]
*601 rgb_mixer\.debounce1_b\.button_hist\[5\]
*602 rgb_mixer\.debounce1_b\.button_hist\[6\]
*603 rgb_mixer\.debounce1_b\.button_hist\[7\]
*604 rgb_mixer\.debounce1_b\.debounced
*605 rgb_mixer\.debounce2_a\.button_hist\[0\]
*606 rgb_mixer\.debounce2_a\.button_hist\[1\]
*607 rgb_mixer\.debounce2_a\.button_hist\[2\]
*608 rgb_mixer\.debounce2_a\.button_hist\[3\]
*609 rgb_mixer\.debounce2_a\.button_hist\[4\]
*610 rgb_mixer\.debounce2_a\.button_hist\[5\]
*611 rgb_mixer\.debounce2_a\.button_hist\[6\]
*612 rgb_mixer\.debounce2_a\.button_hist\[7\]
*613 rgb_mixer\.debounce2_a\.debounced
*614 rgb_mixer\.debounce2_b\.button_hist\[0\]
*615 rgb_mixer\.debounce2_b\.button_hist\[1\]
*616 rgb_mixer\.debounce2_b\.button_hist\[2\]
*617 rgb_mixer\.debounce2_b\.button_hist\[3\]
*618 rgb_mixer\.debounce2_b\.button_hist\[4\]
*619 rgb_mixer\.debounce2_b\.button_hist\[5\]
*620 rgb_mixer\.debounce2_b\.button_hist\[6\]
*621 rgb_mixer\.debounce2_b\.button_hist\[7\]
*622 rgb_mixer\.debounce2_b\.debounced
*623 rgb_mixer\.enc0\[0\]
*624 rgb_mixer\.enc0\[1\]
*625 rgb_mixer\.enc0\[2\]
*626 rgb_mixer\.enc0\[3\]
*627 rgb_mixer\.enc0\[4\]
*628 rgb_mixer\.enc0\[5\]
*629 rgb_mixer\.enc0\[6\]
*630 rgb_mixer\.enc0\[7\]
*631 rgb_mixer\.enc1\[0\]
*632 rgb_mixer\.enc1\[1\]
*633 rgb_mixer\.enc1\[2\]
*634 rgb_mixer\.enc1\[3\]
*635 rgb_mixer\.enc1\[4\]
*636 rgb_mixer\.enc1\[5\]
*637 rgb_mixer\.enc1\[6\]
*638 rgb_mixer\.enc1\[7\]
*639 rgb_mixer\.enc2\[0\]
*640 rgb_mixer\.enc2\[1\]
*641 rgb_mixer\.enc2\[2\]
*642 rgb_mixer\.enc2\[3\]
*643 rgb_mixer\.enc2\[4\]
*644 rgb_mixer\.enc2\[5\]
*645 rgb_mixer\.enc2\[6\]
*646 rgb_mixer\.enc2\[7\]
*647 rgb_mixer\.encoder0\.old_a
*648 rgb_mixer\.encoder0\.old_b
*649 rgb_mixer\.encoder1\.old_a
*650 rgb_mixer\.encoder1\.old_b
*651 rgb_mixer\.encoder2\.old_a
*652 rgb_mixer\.encoder2\.old_b
*653 rgb_mixer\.pwm0\.count\[0\]
*654 rgb_mixer\.pwm0\.count\[1\]
*655 rgb_mixer\.pwm0\.count\[2\]
*656 rgb_mixer\.pwm0\.count\[3\]
*657 rgb_mixer\.pwm0\.count\[4\]
*658 rgb_mixer\.pwm0\.count\[5\]
*659 rgb_mixer\.pwm0\.count\[6\]
*660 rgb_mixer\.pwm0\.count\[7\]
*661 rgb_mixer\.pwm0\.out
*662 rgb_mixer\.pwm1\.count\[0\]
*663 rgb_mixer\.pwm1\.count\[1\]
*664 rgb_mixer\.pwm1\.count\[2\]
*665 rgb_mixer\.pwm1\.count\[3\]
*666 rgb_mixer\.pwm1\.count\[4\]
*667 rgb_mixer\.pwm1\.count\[5\]
*668 rgb_mixer\.pwm1\.count\[6\]
*669 rgb_mixer\.pwm1\.count\[7\]
*670 rgb_mixer\.pwm1\.out
*671 rgb_mixer\.pwm2\.count\[0\]
*672 rgb_mixer\.pwm2\.count\[1\]
*673 rgb_mixer\.pwm2\.count\[2\]
*674 rgb_mixer\.pwm2\.count\[3\]
*675 rgb_mixer\.pwm2\.count\[4\]
*676 rgb_mixer\.pwm2\.count\[5\]
*677 rgb_mixer\.pwm2\.count\[6\]
*678 rgb_mixer\.pwm2\.count\[7\]
*679 rgb_mixer\.pwm2\.out
*680 FILLER_0_0_109
*681 FILLER_0_0_113
*682 FILLER_0_0_125
*683 FILLER_0_0_137
*684 FILLER_0_0_141
*685 FILLER_0_0_15
*686 FILLER_0_0_153
*687 FILLER_0_0_165
*688 FILLER_0_0_169
*689 FILLER_0_0_181
*690 FILLER_0_0_193
*691 FILLER_0_0_197
*692 FILLER_0_0_209
*693 FILLER_0_0_221
*694 FILLER_0_0_225
*695 FILLER_0_0_237
*696 FILLER_0_0_249
*697 FILLER_0_0_253
*698 FILLER_0_0_265
*699 FILLER_0_0_27
*700 FILLER_0_0_277
*701 FILLER_0_0_281
*702 FILLER_0_0_29
*703 FILLER_0_0_293
*704 FILLER_0_0_3
*705 FILLER_0_0_305
*706 FILLER_0_0_309
*707 FILLER_0_0_321
*708 FILLER_0_0_333
*709 FILLER_0_0_41
*710 FILLER_0_0_53
*711 FILLER_0_0_57
*712 FILLER_0_0_69
*713 FILLER_0_0_81
*714 FILLER_0_0_85
*715 FILLER_0_0_97
*716 FILLER_0_10_101
*717 FILLER_0_10_106
*718 FILLER_0_10_116
*719 FILLER_0_10_121
*720 FILLER_0_10_137
*721 FILLER_0_10_141
*722 FILLER_0_10_15
*723 FILLER_0_10_153
*724 FILLER_0_10_175
*725 FILLER_0_10_183
*726 FILLER_0_10_195
*727 FILLER_0_10_197
*728 FILLER_0_10_209
*729 FILLER_0_10_215
*730 FILLER_0_10_223
*731 FILLER_0_10_231
*732 FILLER_0_10_243
*733 FILLER_0_10_251
*734 FILLER_0_10_253
*735 FILLER_0_10_265
*736 FILLER_0_10_27
*737 FILLER_0_10_277
*738 FILLER_0_10_289
*739 FILLER_0_10_29
*740 FILLER_0_10_3
*741 FILLER_0_10_301
*742 FILLER_0_10_307
*743 FILLER_0_10_309
*744 FILLER_0_10_321
*745 FILLER_0_10_333
*746 FILLER_0_10_41
*747 FILLER_0_10_53
*748 FILLER_0_10_65
*749 FILLER_0_10_77
*750 FILLER_0_10_83
*751 FILLER_0_10_85
*752 FILLER_0_10_97
*753 FILLER_0_11_113
*754 FILLER_0_11_130
*755 FILLER_0_11_15
*756 FILLER_0_11_163
*757 FILLER_0_11_177
*758 FILLER_0_11_203
*759 FILLER_0_11_207
*760 FILLER_0_11_223
*761 FILLER_0_11_225
*762 FILLER_0_11_243
*763 FILLER_0_11_255
*764 FILLER_0_11_267
*765 FILLER_0_11_27
*766 FILLER_0_11_279
*767 FILLER_0_11_281
*768 FILLER_0_11_293
*769 FILLER_0_11_3
*770 FILLER_0_11_305
*771 FILLER_0_11_317
*772 FILLER_0_11_329
*773 FILLER_0_11_39
*774 FILLER_0_11_51
*775 FILLER_0_11_55
*776 FILLER_0_11_57
*777 FILLER_0_11_69
*778 FILLER_0_11_81
*779 FILLER_0_11_93
*780 FILLER_0_12_112
*781 FILLER_0_12_128
*782 FILLER_0_12_15
*783 FILLER_0_12_161
*784 FILLER_0_12_166
*785 FILLER_0_12_181
*786 FILLER_0_12_195
*787 FILLER_0_12_202
*788 FILLER_0_12_219
*789 FILLER_0_12_245
*790 FILLER_0_12_251
*791 FILLER_0_12_253
*792 FILLER_0_12_265
*793 FILLER_0_12_27
*794 FILLER_0_12_277
*795 FILLER_0_12_289
*796 FILLER_0_12_29
*797 FILLER_0_12_3
*798 FILLER_0_12_301
*799 FILLER_0_12_307
*800 FILLER_0_12_309
*801 FILLER_0_12_321
*802 FILLER_0_12_333
*803 FILLER_0_12_41
*804 FILLER_0_12_53
*805 FILLER_0_12_65
*806 FILLER_0_12_77
*807 FILLER_0_12_83
*808 FILLER_0_12_85
*809 FILLER_0_12_91
*810 FILLER_0_13_123
*811 FILLER_0_13_135
*812 FILLER_0_13_15
*813 FILLER_0_13_150
*814 FILLER_0_13_162
*815 FILLER_0_13_167
*816 FILLER_0_13_173
*817 FILLER_0_13_179
*818 FILLER_0_13_193
*819 FILLER_0_13_205
*820 FILLER_0_13_209
*821 FILLER_0_13_223
*822 FILLER_0_13_233
*823 FILLER_0_13_248
*824 FILLER_0_13_260
*825 FILLER_0_13_27
*826 FILLER_0_13_272
*827 FILLER_0_13_281
*828 FILLER_0_13_293
*829 FILLER_0_13_3
*830 FILLER_0_13_305
*831 FILLER_0_13_317
*832 FILLER_0_13_329
*833 FILLER_0_13_39
*834 FILLER_0_13_51
*835 FILLER_0_13_55
*836 FILLER_0_13_57
*837 FILLER_0_13_69
*838 FILLER_0_13_81
*839 FILLER_0_13_87
*840 FILLER_0_13_94
*841 FILLER_0_14_109
*842 FILLER_0_14_118
*843 FILLER_0_14_130
*844 FILLER_0_14_138
*845 FILLER_0_14_15
*846 FILLER_0_14_154
*847 FILLER_0_14_164
*848 FILLER_0_14_176
*849 FILLER_0_14_188
*850 FILLER_0_14_197
*851 FILLER_0_14_209
*852 FILLER_0_14_217
*853 FILLER_0_14_223
*854 FILLER_0_14_231
*855 FILLER_0_14_241
*856 FILLER_0_14_249
*857 FILLER_0_14_253
*858 FILLER_0_14_265
*859 FILLER_0_14_27
*860 FILLER_0_14_277
*861 FILLER_0_14_289
*862 FILLER_0_14_29
*863 FILLER_0_14_3
*864 FILLER_0_14_301
*865 FILLER_0_14_307
*866 FILLER_0_14_309
*867 FILLER_0_14_321
*868 FILLER_0_14_333
*869 FILLER_0_14_41
*870 FILLER_0_14_53
*871 FILLER_0_14_65
*872 FILLER_0_14_77
*873 FILLER_0_14_83
*874 FILLER_0_15_101
*875 FILLER_0_15_109
*876 FILLER_0_15_113
*877 FILLER_0_15_122
*878 FILLER_0_15_142
*879 FILLER_0_15_149
*880 FILLER_0_15_15
*881 FILLER_0_15_153
*882 FILLER_0_15_157
*883 FILLER_0_15_166
*884 FILLER_0_15_185
*885 FILLER_0_15_190
*886 FILLER_0_15_208
*887 FILLER_0_15_216
*888 FILLER_0_15_233
*889 FILLER_0_15_245
*890 FILLER_0_15_257
*891 FILLER_0_15_27
*892 FILLER_0_15_276
*893 FILLER_0_15_281
*894 FILLER_0_15_3
*895 FILLER_0_15_327
*896 FILLER_0_15_39
*897 FILLER_0_15_51
*898 FILLER_0_15_55
*899 FILLER_0_15_57
*900 FILLER_0_15_69
*901 FILLER_0_15_81
*902 FILLER_0_15_89
*903 FILLER_0_15_95
*904 FILLER_0_16_129
*905 FILLER_0_16_139
*906 FILLER_0_16_141
*907 FILLER_0_16_15
*908 FILLER_0_16_194
*909 FILLER_0_16_218
*910 FILLER_0_16_248
*911 FILLER_0_16_27
*912 FILLER_0_16_274
*913 FILLER_0_16_288
*914 FILLER_0_16_29
*915 FILLER_0_16_3
*916 FILLER_0_16_329
*917 FILLER_0_16_41
*918 FILLER_0_16_53
*919 FILLER_0_16_65
*920 FILLER_0_16_77
*921 FILLER_0_16_83
*922 FILLER_0_16_85
*923 FILLER_0_17_101
*924 FILLER_0_17_139
*925 FILLER_0_17_147
*926 FILLER_0_17_15
*927 FILLER_0_17_165
*928 FILLER_0_17_223
*929 FILLER_0_17_246
*930 FILLER_0_17_269
*931 FILLER_0_17_27
*932 FILLER_0_17_277
*933 FILLER_0_17_3
*934 FILLER_0_17_332
*935 FILLER_0_17_39
*936 FILLER_0_17_51
*937 FILLER_0_17_55
*938 FILLER_0_17_57
*939 FILLER_0_17_69
*940 FILLER_0_17_93
*941 FILLER_0_18_130
*942 FILLER_0_18_138
*943 FILLER_0_18_141
*944 FILLER_0_18_15
*945 FILLER_0_18_153
*946 FILLER_0_18_165
*947 FILLER_0_18_177
*948 FILLER_0_18_189
*949 FILLER_0_18_195
*950 FILLER_0_18_197
*951 FILLER_0_18_209
*952 FILLER_0_18_221
*953 FILLER_0_18_228
*954 FILLER_0_18_240
*955 FILLER_0_18_246
*956 FILLER_0_18_27
*957 FILLER_0_18_272
*958 FILLER_0_18_284
*959 FILLER_0_18_29
*960 FILLER_0_18_3
*961 FILLER_0_18_306
*962 FILLER_0_18_329
*963 FILLER_0_18_41
*964 FILLER_0_18_53
*965 FILLER_0_18_65
*966 FILLER_0_18_85
*967 FILLER_0_18_99
*968 FILLER_0_19_108
*969 FILLER_0_19_125
*970 FILLER_0_19_131
*971 FILLER_0_19_15
*972 FILLER_0_19_158
*973 FILLER_0_19_166
*974 FILLER_0_19_169
*975 FILLER_0_19_181
*976 FILLER_0_19_193
*977 FILLER_0_19_205
*978 FILLER_0_19_217
*979 FILLER_0_19_223
*980 FILLER_0_19_225
*981 FILLER_0_19_233
*982 FILLER_0_19_238
*983 FILLER_0_19_243
*984 FILLER_0_19_268
*985 FILLER_0_19_27
*986 FILLER_0_19_281
*987 FILLER_0_19_293
*988 FILLER_0_19_3
*989 FILLER_0_19_334
*990 FILLER_0_19_39
*991 FILLER_0_19_51
*992 FILLER_0_19_55
*993 FILLER_0_19_57
*994 FILLER_0_19_69
*995 FILLER_0_19_78
*996 FILLER_0_19_96
*997 FILLER_0_1_105
*998 FILLER_0_1_111
*999 FILLER_0_1_113
*1000 FILLER_0_1_125
*1001 FILLER_0_1_137
*1002 FILLER_0_1_149
*1003 FILLER_0_1_15
*1004 FILLER_0_1_161
*1005 FILLER_0_1_167
*1006 FILLER_0_1_169
*1007 FILLER_0_1_181
*1008 FILLER_0_1_193
*1009 FILLER_0_1_205
*1010 FILLER_0_1_217
*1011 FILLER_0_1_223
*1012 FILLER_0_1_225
*1013 FILLER_0_1_237
*1014 FILLER_0_1_249
*1015 FILLER_0_1_261
*1016 FILLER_0_1_27
*1017 FILLER_0_1_273
*1018 FILLER_0_1_279
*1019 FILLER_0_1_281
*1020 FILLER_0_1_293
*1021 FILLER_0_1_3
*1022 FILLER_0_1_305
*1023 FILLER_0_1_317
*1024 FILLER_0_1_329
*1025 FILLER_0_1_39
*1026 FILLER_0_1_51
*1027 FILLER_0_1_55
*1028 FILLER_0_1_57
*1029 FILLER_0_1_69
*1030 FILLER_0_1_81
*1031 FILLER_0_1_93
*1032 FILLER_0_20_103
*1033 FILLER_0_20_115
*1034 FILLER_0_20_15
*1035 FILLER_0_20_167
*1036 FILLER_0_20_179
*1037 FILLER_0_20_195
*1038 FILLER_0_20_200
*1039 FILLER_0_20_215
*1040 FILLER_0_20_227
*1041 FILLER_0_20_250
*1042 FILLER_0_20_253
*1043 FILLER_0_20_267
*1044 FILLER_0_20_27
*1045 FILLER_0_20_29
*1046 FILLER_0_20_292
*1047 FILLER_0_20_3
*1048 FILLER_0_20_300
*1049 FILLER_0_20_304
*1050 FILLER_0_20_309
*1051 FILLER_0_20_328
*1052 FILLER_0_20_334
*1053 FILLER_0_20_41
*1054 FILLER_0_20_53
*1055 FILLER_0_20_65
*1056 FILLER_0_20_91
*1057 FILLER_0_21_100
*1058 FILLER_0_21_110
*1059 FILLER_0_21_113
*1060 FILLER_0_21_125
*1061 FILLER_0_21_15
*1062 FILLER_0_21_150
*1063 FILLER_0_21_169
*1064 FILLER_0_21_182
*1065 FILLER_0_21_225
*1066 FILLER_0_21_233
*1067 FILLER_0_21_262
*1068 FILLER_0_21_27
*1069 FILLER_0_21_3
*1070 FILLER_0_21_303
*1071 FILLER_0_21_327
*1072 FILLER_0_21_39
*1073 FILLER_0_21_51
*1074 FILLER_0_21_55
*1075 FILLER_0_21_57
*1076 FILLER_0_21_87
*1077 FILLER_0_22_121
*1078 FILLER_0_22_141
*1079 FILLER_0_22_15
*1080 FILLER_0_22_153
*1081 FILLER_0_22_160
*1082 FILLER_0_22_172
*1083 FILLER_0_22_207
*1084 FILLER_0_22_215
*1085 FILLER_0_22_220
*1086 FILLER_0_22_228
*1087 FILLER_0_22_253
*1088 FILLER_0_22_27
*1089 FILLER_0_22_29
*1090 FILLER_0_22_3
*1091 FILLER_0_22_309
*1092 FILLER_0_22_316
*1093 FILLER_0_22_328
*1094 FILLER_0_22_334
*1095 FILLER_0_22_41
*1096 FILLER_0_22_53
*1097 FILLER_0_22_59
*1098 FILLER_0_22_83
*1099 FILLER_0_22_90
*1100 FILLER_0_23_107
*1101 FILLER_0_23_111
*1102 FILLER_0_23_113
*1103 FILLER_0_23_125
*1104 FILLER_0_23_137
*1105 FILLER_0_23_15
*1106 FILLER_0_23_151
*1107 FILLER_0_23_159
*1108 FILLER_0_23_169
*1109 FILLER_0_23_181
*1110 FILLER_0_23_207
*1111 FILLER_0_23_219
*1112 FILLER_0_23_223
*1113 FILLER_0_23_225
*1114 FILLER_0_23_233
*1115 FILLER_0_23_252
*1116 FILLER_0_23_262
*1117 FILLER_0_23_27
*1118 FILLER_0_23_289
*1119 FILLER_0_23_3
*1120 FILLER_0_23_301
*1121 FILLER_0_23_323
*1122 FILLER_0_23_334
*1123 FILLER_0_23_39
*1124 FILLER_0_23_51
*1125 FILLER_0_23_55
*1126 FILLER_0_23_86
*1127 FILLER_0_23_94
*1128 FILLER_0_24_107
*1129 FILLER_0_24_122
*1130 FILLER_0_24_15
*1131 FILLER_0_24_154
*1132 FILLER_0_24_159
*1133 FILLER_0_24_185
*1134 FILLER_0_24_189
*1135 FILLER_0_24_197
*1136 FILLER_0_24_211
*1137 FILLER_0_24_223
*1138 FILLER_0_24_231
*1139 FILLER_0_24_242
*1140 FILLER_0_24_250
*1141 FILLER_0_24_258
*1142 FILLER_0_24_27
*1143 FILLER_0_24_280
*1144 FILLER_0_24_29
*1145 FILLER_0_24_294
*1146 FILLER_0_24_3
*1147 FILLER_0_24_333
*1148 FILLER_0_24_41
*1149 FILLER_0_24_53
*1150 FILLER_0_24_91
*1151 FILLER_0_25_113
*1152 FILLER_0_25_131
*1153 FILLER_0_25_135
*1154 FILLER_0_25_148
*1155 FILLER_0_25_15
*1156 FILLER_0_25_154
*1157 FILLER_0_25_166
*1158 FILLER_0_25_169
*1159 FILLER_0_25_177
*1160 FILLER_0_25_204
*1161 FILLER_0_25_225
*1162 FILLER_0_25_236
*1163 FILLER_0_25_248
*1164 FILLER_0_25_256
*1165 FILLER_0_25_27
*1166 FILLER_0_25_274
*1167 FILLER_0_25_284
*1168 FILLER_0_25_296
*1169 FILLER_0_25_3
*1170 FILLER_0_25_323
*1171 FILLER_0_25_333
*1172 FILLER_0_25_39
*1173 FILLER_0_25_51
*1174 FILLER_0_25_55
*1175 FILLER_0_25_57
*1176 FILLER_0_25_83
*1177 FILLER_0_25_95
*1178 FILLER_0_26_102
*1179 FILLER_0_26_110
*1180 FILLER_0_26_114
*1181 FILLER_0_26_118
*1182 FILLER_0_26_130
*1183 FILLER_0_26_138
*1184 FILLER_0_26_15
*1185 FILLER_0_26_169
*1186 FILLER_0_26_193
*1187 FILLER_0_26_210
*1188 FILLER_0_26_242
*1189 FILLER_0_26_250
*1190 FILLER_0_26_253
*1191 FILLER_0_26_259
*1192 FILLER_0_26_27
*1193 FILLER_0_26_29
*1194 FILLER_0_26_292
*1195 FILLER_0_26_3
*1196 FILLER_0_26_304
*1197 FILLER_0_26_330
*1198 FILLER_0_26_334
*1199 FILLER_0_26_41
*1200 FILLER_0_26_53
*1201 FILLER_0_26_65
*1202 FILLER_0_26_83
*1203 FILLER_0_26_85
*1204 FILLER_0_26_97
*1205 FILLER_0_27_102
*1206 FILLER_0_27_110
*1207 FILLER_0_27_113
*1208 FILLER_0_27_146
*1209 FILLER_0_27_15
*1210 FILLER_0_27_158
*1211 FILLER_0_27_166
*1212 FILLER_0_27_169
*1213 FILLER_0_27_177
*1214 FILLER_0_27_183
*1215 FILLER_0_27_192
*1216 FILLER_0_27_204
*1217 FILLER_0_27_216
*1218 FILLER_0_27_225
*1219 FILLER_0_27_236
*1220 FILLER_0_27_256
*1221 FILLER_0_27_27
*1222 FILLER_0_27_279
*1223 FILLER_0_27_281
*1224 FILLER_0_27_293
*1225 FILLER_0_27_3
*1226 FILLER_0_27_39
*1227 FILLER_0_27_51
*1228 FILLER_0_27_84
*1229 FILLER_0_27_94
*1230 FILLER_0_28_115
*1231 FILLER_0_28_119
*1232 FILLER_0_28_139
*1233 FILLER_0_28_141
*1234 FILLER_0_28_15
*1235 FILLER_0_28_163
*1236 FILLER_0_28_192
*1237 FILLER_0_28_197
*1238 FILLER_0_28_209
*1239 FILLER_0_28_221
*1240 FILLER_0_28_245
*1241 FILLER_0_28_251
*1242 FILLER_0_28_253
*1243 FILLER_0_28_265
*1244 FILLER_0_28_27
*1245 FILLER_0_28_277
*1246 FILLER_0_28_29
*1247 FILLER_0_28_3
*1248 FILLER_0_28_333
*1249 FILLER_0_28_41
*1250 FILLER_0_28_49
*1251 FILLER_0_28_85
*1252 FILLER_0_29_113
*1253 FILLER_0_29_124
*1254 FILLER_0_29_15
*1255 FILLER_0_29_158
*1256 FILLER_0_29_166
*1257 FILLER_0_29_169
*1258 FILLER_0_29_199
*1259 FILLER_0_29_208
*1260 FILLER_0_29_213
*1261 FILLER_0_29_221
*1262 FILLER_0_29_225
*1263 FILLER_0_29_231
*1264 FILLER_0_29_240
*1265 FILLER_0_29_252
*1266 FILLER_0_29_27
*1267 FILLER_0_29_289
*1268 FILLER_0_29_3
*1269 FILLER_0_29_301
*1270 FILLER_0_29_333
*1271 FILLER_0_29_39
*1272 FILLER_0_29_51
*1273 FILLER_0_29_73
*1274 FILLER_0_29_85
*1275 FILLER_0_29_91
*1276 FILLER_0_2_109
*1277 FILLER_0_2_121
*1278 FILLER_0_2_133
*1279 FILLER_0_2_139
*1280 FILLER_0_2_141
*1281 FILLER_0_2_15
*1282 FILLER_0_2_153
*1283 FILLER_0_2_165
*1284 FILLER_0_2_177
*1285 FILLER_0_2_189
*1286 FILLER_0_2_195
*1287 FILLER_0_2_197
*1288 FILLER_0_2_209
*1289 FILLER_0_2_221
*1290 FILLER_0_2_233
*1291 FILLER_0_2_245
*1292 FILLER_0_2_251
*1293 FILLER_0_2_253
*1294 FILLER_0_2_265
*1295 FILLER_0_2_27
*1296 FILLER_0_2_277
*1297 FILLER_0_2_289
*1298 FILLER_0_2_29
*1299 FILLER_0_2_3
*1300 FILLER_0_2_301
*1301 FILLER_0_2_307
*1302 FILLER_0_2_309
*1303 FILLER_0_2_321
*1304 FILLER_0_2_333
*1305 FILLER_0_2_41
*1306 FILLER_0_2_53
*1307 FILLER_0_2_65
*1308 FILLER_0_2_77
*1309 FILLER_0_2_83
*1310 FILLER_0_2_85
*1311 FILLER_0_2_97
*1312 FILLER_0_30_110
*1313 FILLER_0_30_149
*1314 FILLER_0_30_15
*1315 FILLER_0_30_167
*1316 FILLER_0_30_171
*1317 FILLER_0_30_185
*1318 FILLER_0_30_216
*1319 FILLER_0_30_224
*1320 FILLER_0_30_241
*1321 FILLER_0_30_251
*1322 FILLER_0_30_27
*1323 FILLER_0_30_29
*1324 FILLER_0_30_3
*1325 FILLER_0_30_305
*1326 FILLER_0_30_309
*1327 FILLER_0_30_320
*1328 FILLER_0_30_324
*1329 FILLER_0_30_333
*1330 FILLER_0_30_41
*1331 FILLER_0_30_53
*1332 FILLER_0_30_66
*1333 FILLER_0_30_70
*1334 FILLER_0_30_74
*1335 FILLER_0_30_81
*1336 FILLER_0_31_103
*1337 FILLER_0_31_111
*1338 FILLER_0_31_113
*1339 FILLER_0_31_125
*1340 FILLER_0_31_130
*1341 FILLER_0_31_147
*1342 FILLER_0_31_15
*1343 FILLER_0_31_159
*1344 FILLER_0_31_167
*1345 FILLER_0_31_231
*1346 FILLER_0_31_27
*1347 FILLER_0_31_279
*1348 FILLER_0_31_3
*1349 FILLER_0_31_308
*1350 FILLER_0_31_330
*1351 FILLER_0_31_334
*1352 FILLER_0_31_35
*1353 FILLER_0_31_53
*1354 FILLER_0_31_57
*1355 FILLER_0_31_69
*1356 FILLER_0_31_74
*1357 FILLER_0_31_83
*1358 FILLER_0_31_89
*1359 FILLER_0_31_93
*1360 FILLER_0_31_99
*1361 FILLER_0_32_102
*1362 FILLER_0_32_111
*1363 FILLER_0_32_117
*1364 FILLER_0_32_123
*1365 FILLER_0_32_141
*1366 FILLER_0_32_15
*1367 FILLER_0_32_153
*1368 FILLER_0_32_165
*1369 FILLER_0_32_179
*1370 FILLER_0_32_197
*1371 FILLER_0_32_219
*1372 FILLER_0_32_229
*1373 FILLER_0_32_241
*1374 FILLER_0_32_253
*1375 FILLER_0_32_27
*1376 FILLER_0_32_29
*1377 FILLER_0_32_3
*1378 FILLER_0_32_304
*1379 FILLER_0_32_330
*1380 FILLER_0_32_334
*1381 FILLER_0_32_37
*1382 FILLER_0_32_55
*1383 FILLER_0_32_63
*1384 FILLER_0_32_82
*1385 FILLER_0_32_92
*1386 FILLER_0_33_109
*1387 FILLER_0_33_113
*1388 FILLER_0_33_125
*1389 FILLER_0_33_137
*1390 FILLER_0_33_15
*1391 FILLER_0_33_164
*1392 FILLER_0_33_169
*1393 FILLER_0_33_181
*1394 FILLER_0_33_215
*1395 FILLER_0_33_225
*1396 FILLER_0_33_23
*1397 FILLER_0_33_237
*1398 FILLER_0_33_245
*1399 FILLER_0_33_281
*1400 FILLER_0_33_295
*1401 FILLER_0_33_3
*1402 FILLER_0_33_33
*1403 FILLER_0_33_330
*1404 FILLER_0_33_334
*1405 FILLER_0_33_53
*1406 FILLER_0_33_57
*1407 FILLER_0_33_90
*1408 FILLER_0_33_98
*1409 FILLER_0_34_114
*1410 FILLER_0_34_133
*1411 FILLER_0_34_139
*1412 FILLER_0_34_15
*1413 FILLER_0_34_176
*1414 FILLER_0_34_188
*1415 FILLER_0_34_213
*1416 FILLER_0_34_230
*1417 FILLER_0_34_242
*1418 FILLER_0_34_246
*1419 FILLER_0_34_271
*1420 FILLER_0_34_283
*1421 FILLER_0_34_289
*1422 FILLER_0_34_293
*1423 FILLER_0_34_3
*1424 FILLER_0_34_301
*1425 FILLER_0_34_307
*1426 FILLER_0_34_325
*1427 FILLER_0_34_333
*1428 FILLER_0_34_61
*1429 FILLER_0_34_73
*1430 FILLER_0_34_82
*1431 FILLER_0_34_85
*1432 FILLER_0_34_97
*1433 FILLER_0_35_110
*1434 FILLER_0_35_138
*1435 FILLER_0_35_142
*1436 FILLER_0_35_15
*1437 FILLER_0_35_162
*1438 FILLER_0_35_176
*1439 FILLER_0_35_184
*1440 FILLER_0_35_214
*1441 FILLER_0_35_219
*1442 FILLER_0_35_223
*1443 FILLER_0_35_225
*1444 FILLER_0_35_231
*1445 FILLER_0_35_27
*1446 FILLER_0_35_278
*1447 FILLER_0_35_3
*1448 FILLER_0_35_305
*1449 FILLER_0_35_326
*1450 FILLER_0_35_334
*1451 FILLER_0_35_45
*1452 FILLER_0_35_53
*1453 FILLER_0_35_57
*1454 FILLER_0_35_63
*1455 FILLER_0_35_79
*1456 FILLER_0_35_86
*1457 FILLER_0_35_98
*1458 FILLER_0_36_101
*1459 FILLER_0_36_132
*1460 FILLER_0_36_141
*1461 FILLER_0_36_147
*1462 FILLER_0_36_15
*1463 FILLER_0_36_177
*1464 FILLER_0_36_188
*1465 FILLER_0_36_27
*1466 FILLER_0_36_282
*1467 FILLER_0_36_29
*1468 FILLER_0_36_299
*1469 FILLER_0_36_3
*1470 FILLER_0_36_314
*1471 FILLER_0_36_334
*1472 FILLER_0_36_41
*1473 FILLER_0_36_53
*1474 FILLER_0_36_83
*1475 FILLER_0_37_111
*1476 FILLER_0_37_113
*1477 FILLER_0_37_117
*1478 FILLER_0_37_131
*1479 FILLER_0_37_143
*1480 FILLER_0_37_15
*1481 FILLER_0_37_155
*1482 FILLER_0_37_175
*1483 FILLER_0_37_203
*1484 FILLER_0_37_209
*1485 FILLER_0_37_216
*1486 FILLER_0_37_223
*1487 FILLER_0_37_225
*1488 FILLER_0_37_237
*1489 FILLER_0_37_27
*1490 FILLER_0_37_276
*1491 FILLER_0_37_3
*1492 FILLER_0_37_310
*1493 FILLER_0_37_331
*1494 FILLER_0_37_39
*1495 FILLER_0_37_51
*1496 FILLER_0_37_55
*1497 FILLER_0_37_57
*1498 FILLER_0_37_93
*1499 FILLER_0_38_10
*1500 FILLER_0_38_102
*1501 FILLER_0_38_106
*1502 FILLER_0_38_110
*1503 FILLER_0_38_113
*1504 FILLER_0_38_118
*1505 FILLER_0_38_122
*1506 FILLER_0_38_126
*1507 FILLER_0_38_130
*1508 FILLER_0_38_134
*1509 FILLER_0_38_14
*1510 FILLER_0_38_144
*1511 FILLER_0_38_150
*1512 FILLER_0_38_154
*1513 FILLER_0_38_158
*1514 FILLER_0_38_162
*1515 FILLER_0_38_166
*1516 FILLER_0_38_169
*1517 FILLER_0_38_177
*1518 FILLER_0_38_18
*1519 FILLER_0_38_184
*1520 FILLER_0_38_197
*1521 FILLER_0_38_209
*1522 FILLER_0_38_22
*1523 FILLER_0_38_221
*1524 FILLER_0_38_225
*1525 FILLER_0_38_237
*1526 FILLER_0_38_249
*1527 FILLER_0_38_266
*1528 FILLER_0_38_278
*1529 FILLER_0_38_281
*1530 FILLER_0_38_300
*1531 FILLER_0_38_307
*1532 FILLER_0_38_32
*1533 FILLER_0_38_38
*1534 FILLER_0_38_42
*1535 FILLER_0_38_46
*1536 FILLER_0_38_50
*1537 FILLER_0_38_54
*1538 FILLER_0_38_57
*1539 FILLER_0_38_6
*1540 FILLER_0_38_62
*1541 FILLER_0_38_66
*1542 FILLER_0_38_70
*1543 FILLER_0_38_78
*1544 FILLER_0_38_88
*1545 FILLER_0_38_94
*1546 FILLER_0_38_98
*1547 FILLER_0_3_105
*1548 FILLER_0_3_111
*1549 FILLER_0_3_113
*1550 FILLER_0_3_125
*1551 FILLER_0_3_137
*1552 FILLER_0_3_149
*1553 FILLER_0_3_15
*1554 FILLER_0_3_161
*1555 FILLER_0_3_167
*1556 FILLER_0_3_169
*1557 FILLER_0_3_181
*1558 FILLER_0_3_193
*1559 FILLER_0_3_205
*1560 FILLER_0_3_217
*1561 FILLER_0_3_223
*1562 FILLER_0_3_225
*1563 FILLER_0_3_237
*1564 FILLER_0_3_249
*1565 FILLER_0_3_261
*1566 FILLER_0_3_27
*1567 FILLER_0_3_273
*1568 FILLER_0_3_279
*1569 FILLER_0_3_281
*1570 FILLER_0_3_293
*1571 FILLER_0_3_3
*1572 FILLER_0_3_305
*1573 FILLER_0_3_317
*1574 FILLER_0_3_329
*1575 FILLER_0_3_39
*1576 FILLER_0_3_51
*1577 FILLER_0_3_55
*1578 FILLER_0_3_57
*1579 FILLER_0_3_69
*1580 FILLER_0_3_81
*1581 FILLER_0_3_93
*1582 FILLER_0_4_109
*1583 FILLER_0_4_121
*1584 FILLER_0_4_133
*1585 FILLER_0_4_139
*1586 FILLER_0_4_141
*1587 FILLER_0_4_15
*1588 FILLER_0_4_153
*1589 FILLER_0_4_165
*1590 FILLER_0_4_177
*1591 FILLER_0_4_189