*SPEF "ieee 1481-1999"
*DESIGN "tt_um_flappy_bird"
*DATE "11:11:11 Fri 11 11, 1111"
*VENDOR "OpenRCX"
*PROGRAM "Parallel Extraction"
*VERSION "1.0"
*DESIGN_FLOW "NAME_SCOPE LOCAL" "PIN_CAP NONE"
*DIVIDER /
*DELIMITER :
*BUS_DELIMITER []
*T_UNIT 1 NS
*C_UNIT 1 PF
*R_UNIT 1 OHM
*L_UNIT 1 HENRY

*NAME_MAP
*3 clk
*4 ena
*5 rst_n
*6 ui_in[0]
*7 ui_in[1]
*8 ui_in[2]
*9 ui_in[3]
*10 ui_in[4]
*11 ui_in[5]
*12 ui_in[6]
*13 ui_in[7]
*14 uio_in[0]
*15 uio_in[1]
*16 uio_in[2]
*17 uio_in[3]
*18 uio_in[4]
*19 uio_in[5]
*20 uio_in[6]
*21 uio_in[7]
*22 net6
*23 net7
*24 net8
*25 net9
*26 net10
*27 net11
*28 net12
*29 net13
*30 uio_out[0]
*31 uio_out[1]
*32 uio_out[2]
*33 uio_out[3]
*34 uio_out[4]
*35 uio_out[5]
*36 uio_out[6]
*37 uio_out[7]
*38 uo_out[0]
*39 uo_out[1]
*40 uo_out[2]
*41 uo_out[3]
*42 uo_out[4]
*43 uo_out[5]
*44 uo_out[6]
*45 uo_out[7]
*46 State\[0\]
*47 State\[1\]
*48 State\[2\]
*49 _0000_
*50 _0001_
*51 _0002_
*52 _0010_
*53 _0011_
*54 _0012_
*55 _0013_
*56 _0014_
*57 _0015_
*58 _0016_
*59 _0017_
*60 _0018_
*61 _0019_
*62 _0020_
*63 _0021_
*64 _0022_
*65 _0023_
*66 _0024_
*67 _0025_
*68 _0026_
*69 _0027_
*70 _0028_
*71 _0029_
*72 _0030_
*73 _0031_
*74 _0032_
*75 _0033_
*76 _0034_
*77 _0035_
*78 _0036_
*79 _0037_
*80 _0038_
*81 _0039_
*82 _0040_
*83 _0041_
*84 _0042_
*85 _0043_
*86 _0044_
*87 _0045_
*88 _0046_
*89 _0047_
*90 _0048_
*91 _0049_
*92 _0050_
*93 _0051_
*94 _0052_
*95 _0053_
*96 _0054_
*97 _0055_
*98 _0056_
*99 _0057_
*100 _0058_
*101 _0059_
*102 _0060_
*103 _0061_
*104 _0062_
*105 _0063_
*106 _0064_
*107 _0065_
*108 _0066_
*109 _0067_
*110 _0068_
*111 _0069_
*112 _0070_
*113 _0071_
*114 _0072_
*115 _0073_
*116 _0074_
*117 _0075_
*118 _0076_
*119 _0077_
*120 _0078_
*121 _0079_
*122 _0080_
*123 _0081_
*124 _0082_
*125 _0083_
*126 _0084_
*127 _0085_
*128 _0086_
*129 _0087_
*130 _0088_
*131 _0089_
*132 _0090_
*133 _0091_
*134 _0092_
*135 _0093_
*136 _0094_
*137 _0095_
*138 _0096_
*139 _0097_
*140 _0098_
*141 _0099_
*142 _0100_
*143 _0101_
*144 _0102_
*145 _0103_
*146 _0104_
*147 _0105_
*148 _0106_
*149 _0107_
*150 _0108_
*151 _0109_
*152 _0110_
*153 _0111_
*154 _0112_
*155 _0113_
*156 _0114_
*157 _0115_
*158 _0116_
*159 _0117_
*160 _0118_
*161 _0119_
*162 _0120_
*163 _0121_
*164 _0122_
*165 _0123_
*166 _0124_
*167 _0125_
*168 _0126_
*169 _0127_
*170 _0128_
*171 _0129_
*172 _0130_
*173 _0131_
*174 _0132_
*175 _0133_
*176 _0134_
*177 _0135_
*178 _0136_
*179 _0137_
*180 _0138_
*181 _0139_
*182 _0140_
*183 _0141_
*184 _0142_
*185 _0143_
*186 _0144_
*187 _0145_
*188 _0146_
*189 _0147_
*190 _0148_
*191 _0149_
*192 _0150_
*193 _0151_
*194 _0152_
*195 _0153_
*196 _0154_
*197 _0155_
*198 _0156_
*199 _0157_
*200 _0158_
*201 _0159_
*202 _0160_
*203 _0161_
*204 _0162_
*205 _0163_
*206 _0164_
*207 _0165_
*208 _0166_
*209 _0167_
*210 _0168_
*211 _0169_
*212 _0170_
*213 _0171_
*214 _0172_
*215 _0173_
*216 _0174_
*217 _0175_
*218 _0176_
*219 _0177_
*220 _0178_
*221 _0179_
*222 _0180_
*223 _0181_
*224 _0182_
*225 _0183_
*226 _0184_
*227 _0185_
*228 _0186_
*229 _0187_
*230 _0188_
*231 _0189_
*232 _0190_
*233 _0191_
*234 _0192_
*235 _0193_
*236 _0194_
*237 _0195_
*238 _0196_
*239 _0197_
*240 _0198_
*241 _0199_
*242 _0200_
*243 _0201_
*244 _0202_
*245 _0203_
*246 _0204_
*247 _0205_
*248 _0206_
*249 _0207_
*250 _0208_
*251 _0209_
*252 _0210_
*253 _0211_
*254 _0212_
*255 _0213_
*256 _0214_
*257 _0215_
*258 _0216_
*259 _0217_
*260 _0218_
*261 _0219_
*262 _0220_
*263 _0221_
*264 _0222_
*265 _0223_
*266 _0224_
*267 _0225_
*268 _0226_
*269 _0227_
*270 _0228_
*271 _0229_
*272 _0230_
*273 _0231_
*274 _0232_
*275 _0233_
*276 _0234_
*277 _0235_
*278 _0236_
*279 _0237_
*280 _0238_
*281 _0239_
*282 _0240_
*283 _0241_
*284 _0242_
*285 _0243_
*286 _0244_
*287 _0245_
*288 _0246_
*289 _0247_
*290 _0248_
*291 _0249_
*292 _0250_
*293 _0251_
*294 _0252_
*295 _0253_
*296 _0254_
*297 _0255_
*298 _0256_
*299 _0257_
*300 _0258_
*301 _0259_
*302 _0260_
*303 _0261_
*304 _0262_
*305 _0263_
*306 _0264_
*307 _0265_
*308 _0266_
*309 _0267_
*310 _0268_
*311 _0269_
*312 _0270_
*313 _0271_
*314 _0272_
*315 _0273_
*316 _0274_
*317 _0275_
*318 _0276_
*319 _0277_
*320 _0278_
*321 _0279_
*322 _0280_
*323 _0281_
*324 _0282_
*325 _0283_
*326 _0284_
*327 _0285_
*328 _0286_
*329 _0287_
*330 _0288_
*331 _0289_
*332 _0290_
*333 _0291_
*334 _0292_
*335 _0293_
*336 _0294_
*337 _0295_
*338 _0296_
*339 _0297_
*340 _0298_
*341 _0299_
*342 _0300_
*343 _0301_
*344 _0302_
*345 _0303_
*346 _0304_
*347 _0305_
*348 _0306_
*349 _0307_
*350 _0308_
*351 _0309_
*352 _0310_
*353 _0311_
*354 _0312_
*355 _0313_
*356 _0314_
*357 _0315_
*358 _0316_
*359 _0317_
*360 _0318_
*361 _0319_
*362 _0320_
*363 _0321_
*364 _0322_
*365 _0323_
*366 _0324_
*367 _0325_
*368 _0326_
*369 _0327_
*370 _0328_
*371 _0329_
*372 _0330_
*373 _0331_
*374 _0332_
*375 _0333_
*376 _0334_
*377 _0335_
*378 _0336_
*379 _0337_
*380 _0338_
*381 _0339_
*382 _0340_
*383 _0341_
*384 _0342_
*385 _0343_
*386 _0344_
*387 _0345_
*388 _0346_
*389 _0347_
*390 _0348_
*391 _0349_
*392 _0350_
*393 _0351_
*394 _0352_
*395 _0353_
*396 _0354_
*397 _0355_
*398 _0356_
*399 _0357_
*400 _0358_
*401 _0359_
*402 _0360_
*403 _0361_
*404 _0362_
*405 _0363_
*406 _0364_
*407 _0365_
*408 _0366_
*409 _0367_
*410 _0368_
*411 _0369_
*412 _0370_
*413 _0371_
*414 _0372_
*415 _0373_
*416 _0374_
*417 _0375_
*418 _0376_
*419 _0377_
*420 _0378_
*421 _0379_
*422 _0380_
*423 _0381_
*424 _0382_
*425 _0383_
*426 _0384_
*427 _0385_
*428 _0386_
*429 _0387_
*430 _0388_
*431 _0389_
*432 _0390_
*433 _0391_
*434 _0392_
*435 _0393_
*436 _0394_
*437 _0395_
*438 _0396_
*439 _0397_
*440 _0398_
*441 _0399_
*442 _0400_
*443 _0401_
*444 _0402_
*445 _0403_
*446 _0404_
*447 _0405_
*448 _0406_
*449 _0407_
*450 _0408_
*451 _0409_
*452 _0410_
*453 _0411_
*454 _0412_
*455 _0413_
*456 _0414_
*457 _0415_
*458 _0416_
*459 _0417_
*460 _0418_
*461 _0419_
*462 _0420_
*463 _0421_
*464 _0422_
*465 _0423_
*466 _0424_
*467 _0425_
*468 _0426_
*469 _0427_
*470 _0428_
*471 _0429_
*472 _0430_
*473 _0431_
*474 _0432_
*475 _0433_
*476 _0434_
*477 _0435_
*478 _0436_
*479 _0437_
*480 _0438_
*481 _0439_
*482 _0440_
*483 _0441_
*484 _0442_
*485 _0443_
*486 _0444_
*487 _0445_
*488 _0446_
*489 _0447_
*490 _0448_
*491 _0449_
*492 _0450_
*493 _0451_
*494 _0452_
*495 _0453_
*496 _0454_
*497 _0455_
*498 _0456_
*499 _0457_
*500 _0458_
*501 _0459_
*502 _0460_
*503 _0461_
*504 _0462_
*505 _0463_
*506 _0464_
*507 _0465_
*508 _0466_
*509 _0467_
*510 _0468_
*511 _0469_
*512 _0470_
*513 _0471_
*514 action_dut\.add_beam_counter\[0\]
*515 action_dut\.add_beam_counter\[1\]
*516 action_dut\.beam_matrix\[0\]
*517 action_dut\.beam_matrix\[10\]
*518 action_dut\.beam_matrix\[11\]
*519 action_dut\.beam_matrix\[12\]
*520 action_dut\.beam_matrix\[13\]
*521 action_dut\.beam_matrix\[14\]
*522 action_dut\.beam_matrix\[15\]
*523 action_dut\.beam_matrix\[16\]
*524 action_dut\.beam_matrix\[17\]
*525 action_dut\.beam_matrix\[18\]
*526 action_dut\.beam_matrix\[19\]
*527 action_dut\.beam_matrix\[1\]
*528 action_dut\.beam_matrix\[20\]
*529 action_dut\.beam_matrix\[21\]
*530 action_dut\.beam_matrix\[22\]
*531 action_dut\.beam_matrix\[23\]
*532 action_dut\.beam_matrix\[24\]
*533 action_dut\.beam_matrix\[25\]
*534 action_dut\.beam_matrix\[26\]
*535 action_dut\.beam_matrix\[27\]
*536 action_dut\.beam_matrix\[28\]
*537 action_dut\.beam_matrix\[29\]
*538 action_dut\.beam_matrix\[2\]
*539 action_dut\.beam_matrix\[30\]
*540 action_dut\.beam_matrix\[31\]
*541 action_dut\.beam_matrix\[32\]
*542 action_dut\.beam_matrix\[33\]
*543 action_dut\.beam_matrix\[34\]
*544 action_dut\.beam_matrix\[35\]
*545 action_dut\.beam_matrix\[36\]
*546 action_dut\.beam_matrix\[37\]
*547 action_dut\.beam_matrix\[38\]
*548 action_dut\.beam_matrix\[39\]
*549 action_dut\.beam_matrix\[3\]
*550 action_dut\.beam_matrix\[40\]
*551 action_dut\.beam_matrix\[41\]
*552 action_dut\.beam_matrix\[42\]
*553 action_dut\.beam_matrix\[43\]
*554 action_dut\.beam_matrix\[44\]
*555 action_dut\.beam_matrix\[45\]
*556 action_dut\.beam_matrix\[46\]
*557 action_dut\.beam_matrix\[47\]
*558 action_dut\.beam_matrix\[48\]
*559 action_dut\.beam_matrix\[49\]
*560 action_dut\.beam_matrix\[4\]
*561 action_dut\.beam_matrix\[50\]
*562 action_dut\.beam_matrix\[51\]
*563 action_dut\.beam_matrix\[52\]
*564 action_dut\.beam_matrix\[53\]
*565 action_dut\.beam_matrix\[54\]
*566 action_dut\.beam_matrix\[55\]
*567 action_dut\.beam_matrix\[56\]
*568 action_dut\.beam_matrix\[57\]
*569 action_dut\.beam_matrix\[58\]
*570 action_dut\.beam_matrix\[59\]
*571 action_dut\.beam_matrix\[5\]
*572 action_dut\.beam_matrix\[60\]
*573 action_dut\.beam_matrix\[61\]
*574 action_dut\.beam_matrix\[62\]
*575 action_dut\.beam_matrix\[63\]
*576 action_dut\.beam_matrix\[6\]
*577 action_dut\.beam_matrix\[7\]
*578 action_dut\.beam_matrix\[8\]
*579 action_dut\.beam_matrix\[9\]
*580 action_dut\.bird_pos\[0\]
*581 action_dut\.bird_pos\[1\]
*582 action_dut\.bird_pos\[2\]
*583 action_dut\.bird_pos\[3\]
*584 action_dut\.bird_pos\[4\]
*585 action_dut\.bird_pos\[5\]
*586 action_dut\.bird_pos\[6\]
*587 action_dut\.bird_pos\[7\]
*588 action_dut\.change_counter\[0\]
*589 action_dut\.change_counter\[1\]
*590 action_dut\.change_counter\[2\]
*591 action_dut\.change_counter\[3\]
*592 action_dut\.dead
*593 action_dut\.down_i
*594 action_dut\.e_act_i
*595 action_dut\.matrix\[0\]
*596 action_dut\.matrix\[10\]
*597 action_dut\.matrix\[11\]
*598 action_dut\.matrix\[12\]
*599 action_dut\.matrix\[13\]
*600 action_dut\.matrix\[14\]
*601 action_dut\.matrix\[15\]
*602 action_dut\.matrix\[16\]
*603 action_dut\.matrix\[17\]
*604 action_dut\.matrix\[18\]
*605 action_dut\.matrix\[19\]
*606 action_dut\.matrix\[1\]
*607 action_dut\.matrix\[20\]
*608 action_dut\.matrix\[21\]
*609 action_dut\.matrix\[22\]
*610 action_dut\.matrix\[23\]
*611 action_dut\.matrix\[24\]
*612 action_dut\.matrix\[25\]
*613 action_dut\.matrix\[26\]
*614 action_dut\.matrix\[27\]
*615 action_dut\.matrix\[28\]
*616 action_dut\.matrix\[29\]
*617 action_dut\.matrix\[2\]
*618 action_dut\.matrix\[30\]
*619 action_dut\.matrix\[31\]
*620 action_dut\.matrix\[32\]
*621 action_dut\.matrix\[33\]
*622 action_dut\.matrix\[34\]
*623 action_dut\.matrix\[35\]
*624 action_dut\.matrix\[36\]
*625 action_dut\.matrix\[37\]
*626 action_dut\.matrix\[38\]
*627 action_dut\.matrix\[39\]
*628 action_dut\.matrix\[3\]
*629 action_dut\.matrix\[40\]
*630 action_dut\.matrix\[41\]
*631 action_dut\.matrix\[42\]
*632 action_dut\.matrix\[43\]
*633 action_dut\.matrix\[44\]
*634 action_dut\.matrix\[45\]
*635 action_dut\.matrix\[46\]
*636 action_dut\.matrix\[47\]
*637 action_dut\.matrix\[48\]
*638 action_dut\.matrix\[49\]
*639 action_dut\.matrix\[4\]
*640 action_dut\.matrix\[50\]
*641 action_dut\.matrix\[51\]
*642 action_dut\.matrix\[52\]
*643 action_dut\.matrix\[53\]
*644 action_dut\.matrix\[54\]
*645 action_dut\.matrix\[55\]
*646 action_dut\.matrix\[56\]
*647 action_dut\.matrix\[57\]
*648 action_dut\.matrix\[58\]
*649 action_dut\.matrix\[59\]
*650 action_dut\.matrix\[5\]
*651 action_dut\.matrix\[60\]
*652 action_dut\.matrix\[61\]
*653 action_dut\.matrix\[62\]
*654 action_dut\.matrix\[63\]
*655 action_dut\.matrix\[6\]
*656 action_dut\.matrix\[7\]
*657 action_dut\.matrix\[8\]
*658 action_dut\.matrix\[9\]
*659 action_dut\.random_counter\[0\]
*660 action_dut\.random_counter\[1\]
*661 action_dut\.random_counter\[2\]
*662 action_dut\.random_counter\[3\]
*663 action_dut\.random_counter\[4\]
*664 action_dut\.up_i
*665 clknet_0_clk
*666 clknet_4_0_0_clk
*667 clknet_4_10_0_clk
*668 clknet_4_11_0_clk
*669 clknet_4_12_0_clk
*670 clknet_4_13_0_clk
*671 clknet_4_14_0_clk
*672 clknet_4_15_0_clk
*673 clknet_4_1_0_clk
*674 clknet_4_2_0_clk
*675 clknet_4_3_0_clk
*676 clknet_4_4_0_clk
*677 clknet_4_5_0_clk
*678 clknet_4_6_0_clk
*679 clknet_4_7_0_clk
*680 clknet_4_8_0_clk
*681 clknet_4_9_0_clk
*682 display_dut\.clk_new\[0\]
*683 display_dut\.clk_new\[10\]
*684 display_dut\.clk_new\[11\]
*685 display_dut\.clk_new\[1\]
*686 display_dut\.clk_new\[2\]
*687 display_dut\.clk_new\[3\]
*688 display_dut\.clk_new\[4\]
*689 display_dut\.clk_new\[5\]
*690 display_dut\.clk_new\[6\]
*691 display_dut\.clk_new\[7\]
*692 display_dut\.clk_new\[8\]
*693 display_dut\.clk_new\[9\]
*694 display_dut\.d_disp
*695 display_dut\.e_disp
*696 display_dut\.row_d\[0\]
*697 display_dut\.row_d\[1\]
*698 display_dut\.row_d\[2\]
*699 display_dut\.row_d\[3\]
*700 display_dut\.row_d\[4\]
*701 display_dut\.row_d\[5\]
*702 display_dut\.row_d\[6\]
*703 display_dut\.row_d\[7\]
*704 display_dut\.row_d\[8\]
*705 e_inp
*706 get_input_dut\.d_inp
*707 get_input_dut\.left_cr\[0\]
*708 get_input_dut\.left_cr\[1\]
*709 get_input_dut\.right_cr\[0\]
*710 get_input_dut\.right_cr\[1\]
*711 net1
*712 net100
*713 net101
*714 net102
*715 net103
*716 net104
*717 net105
*718 net106
*719 net107
*720 net108
*721 net109
*722 net110
*723 net111
*724 net112
*725 net113
*726 net114
*727 net115
*728 net116
*729 net117
*730 net118
*731 net119
*732 net120
*733 net121
*734 net122
*735 net123
*736 net124
*737 net125
*738 net126
*739 net127
*740 net128
*741 net129
*742 net130
*743 net131
*744 net132
*745 net133
*746 net134
*747 net135
*748 net136
*749 net137
*750 net138
*751 net139
*752 net14
*753 net140
*754 net141
*755 net142
*756 net143
*757 net144
*758 net145
*759 net146
*760 net147
*761 net148
*762 net149
*763 net15
*764 net150
*765 net151
*766 net152
*767 net153
*768 net154
*769 net155
*770 net156
*771 net157
*772 net158
*773 net159
*774 net16
*775 net160
*776 net161
*777 net162
*778 net163
*779 net164
*780 net165
*781 net166
*782 net167
*783 net168
*784 net169
*785 net17
*786 net170
*787 net171
*788 net172
*789 net173
*790 net174
*791 net175
*792 net176
*793 net177
*794 net178
*795 net179
*796 net18
*797 net180
*798 net181
*799 net182
*800 net183
*801 net184
*802 net185
*803 net186
*804 net187
*805 net188
*806 net189
*807 net19
*808 net190
*809 net191
*810 net192
*811 net193
*812 net194
*813 net195
*814 net196
*815 net197
*816 net198
*817 net199
*818 net2
*819 net20
*820 net200
*821 net201
*822 net202
*823 net203
*824 net204
*825 net205
*826 net206
*827 net207
*828 net208
*829 net209
*830 net21
*831 net210
*832 net211
*833 net212
*834 net213
*835 net214
*836 net215
*837 net216
*838 net217
*839 net218
*840 net219
*841 net22
*842 net220
*843 net221
*844 net222
*845 net223
*846 net224
*847 net225
*848 net226
*849 net227
*850 net228
*851 net229
*852 net23
*853 net230
*854 net231
*855 net232
*856 net233
*857 net234
*858 net235
*859 net236
*860 net237
*861 net238
*862 net239
*863 net24
*864 net240
*865 net241
*866 net242
*867 net243
*868 net244
*869 net245
*870 net246
*871 net247
*872 net248
*873 net249
*874 net25
*875 net250
*876 net251
*877 net252
*878 net253
*879 net254
*880 net255
*881 net256
*882 net257
*883 net258
*884 net259
*885 net26
*886 net260
*887 net261
*888 net262
*889 net263
*890 net264
*891 net265
*892 net266
*893 net267
*894 net268
*895 net269
*896 net27
*897 net28
*898 net29
*899 net3
*900 net30
*901 net31
*902 net32
*903 net33
*904 net34
*905 net35
*906 net36
*907 net37
*908 net38
*909 net39
*910 net4
*911 net40
*912 net41
*913 net42
*914 net43
*915 net44
*916 net45
*917 net46
*918 net47
*919 net48
*920 net49
*921 net5
*922 net50
*923 net51
*924 net52
*925 net53
*926 net54
*927 net55
*928 net56
*929 net57
*930 net58
*931 net59
*932 net60
*933 net61
*934 net62
*935 net63
*936 net64
*937 net65
*938 net66
*939 net67
*940 net68
*941 net69
*942 net70
*943 net71
*944 net72
*945 net73
*946 net74
*947 net75
*948 net76
*949 net77
*950 net78
*951 net79
*952 net80
*953 net81
*954 net82
*955 net83
*956 net84
*957 net85
*958 net86
*959 net87
*960 net88
*961 net89
*962 net90
*963 net91
*964 net92
*965 net93
*966 net94
*967 net95
*968 net96
*969 net97
*970 net98
*971 net99
*972 tReset
*973 ANTENNA_1
*974 ANTENNA_2
*975 FILLER_0_0_109
*976 FILLER_0_0_113
*977 FILLER_0_0_125
*978 FILLER_0_0_137
*979 FILLER_0_0_141
*980 FILLER_0_0_15
*981 FILLER_0_0_153
*982 FILLER_0_0_165
*983 FILLER_0_0_169
*984 FILLER_0_0_181
*985 FILLER_0_0_193
*986 FILLER_0_0_197
*987 FILLER_0_0_209
*988 FILLER_0_0_221
*989 FILLER_0_0_225
*990 FILLER_0_0_237
*991 FILLER_0_0_249
*992 FILLER_0_0_253
*993 FILLER_0_0_265
*994 FILLER_0_0_27
*995 FILLER_0_0_277
*996 FILLER_0_0_281
*997 FILLER_0_0_29
*998 FILLER_0_0_293
*999 FILLER_0_0_3
*1000 FILLER_0_0_305
*1001 FILLER_0_0_309
*1002 FILLER_0_0_321
*1003 FILLER_0_0_333
*1004 FILLER_0_0_41
*1005 FILLER_0_0_53
*1006 FILLER_0_0_57
*1007 FILLER_0_0_69
*1008 FILLER_0_0_81
*1009 FILLER_0_0_85
*1010 FILLER_0_0_97
*1011 FILLER_0_10_109
*1012 FILLER_0_10_11
*1013 FILLER_0_10_141
*1014 FILLER_0_10_153
*1015 FILLER_0_10_175
*1016 FILLER_0_10_179
*1017 FILLER_0_10_195
*1018 FILLER_0_10_205
*1019 FILLER_0_10_248
*1020 FILLER_0_10_253
*1021 FILLER_0_10_265
*1022 FILLER_0_10_29
*1023 FILLER_0_10_294
*1024 FILLER_0_10_3
*1025 FILLER_0_10_321
*1026 FILLER_0_10_327
*1027 FILLER_0_10_51
*1028 FILLER_0_10_60
*1029 FILLER_0_10_93
*1030 FILLER_0_11_113
*1031 FILLER_0_11_117
*1032 FILLER_0_11_134
*1033 FILLER_0_11_153
*1034 FILLER_0_11_164
*1035 FILLER_0_11_169
*1036 FILLER_0_11_180
*1037 FILLER_0_11_199
*1038 FILLER_0_11_241
*1039 FILLER_0_11_275
*1040 FILLER_0_11_279
*1041 FILLER_0_11_292
*1042 FILLER_0_11_3
*1043 FILLER_0_11_30
*1044 FILLER_0_11_300
*1045 FILLER_0_11_310
*1046 FILLER_0_11_324
*1047 FILLER_0_11_334
*1048 FILLER_0_11_57
*1049 FILLER_0_11_78
*1050 FILLER_0_12_125
*1051 FILLER_0_12_129
*1052 FILLER_0_12_138
*1053 FILLER_0_12_245
*1054 FILLER_0_12_251
*1055 FILLER_0_12_262
*1056 FILLER_0_12_27
*1057 FILLER_0_12_270
*1058 FILLER_0_12_29
*1059 FILLER_0_12_292
*1060 FILLER_0_12_3
*1061 FILLER_0_12_304
*1062 FILLER_0_12_309
*1063 FILLER_0_12_328
*1064 FILLER_0_12_334
*1065 FILLER_0_12_49
*1066 FILLER_0_12_85
*1067 FILLER_0_13_11
*1068 FILLER_0_13_119
*1069 FILLER_0_13_194
*1070 FILLER_0_13_206
*1071 FILLER_0_13_212
*1072 FILLER_0_13_232
*1073 FILLER_0_13_243
*1074 FILLER_0_13_262
*1075 FILLER_0_13_268
*1076 FILLER_0_13_274
*1077 FILLER_0_13_287
*1078 FILLER_0_13_299
*1079 FILLER_0_13_3
*1080 FILLER_0_13_305
*1081 FILLER_0_13_326
*1082 FILLER_0_13_334
*1083 FILLER_0_13_51
*1084 FILLER_0_13_55
*1085 FILLER_0_13_73
*1086 FILLER_0_14_122
*1087 FILLER_0_14_159
*1088 FILLER_0_14_163
*1089 FILLER_0_14_197
*1090 FILLER_0_14_209
*1091 FILLER_0_14_243
*1092 FILLER_0_14_260
*1093 FILLER_0_14_283
*1094 FILLER_0_14_29
*1095 FILLER_0_14_295
*1096 FILLER_0_14_299
*1097 FILLER_0_14_3
*1098 FILLER_0_14_333
*1099 FILLER_0_14_39
*1100 FILLER_0_14_43
*1101 FILLER_0_15_108
*1102 FILLER_0_15_121
*1103 FILLER_0_15_169
*1104 FILLER_0_15_186
*1105 FILLER_0_15_199
*1106 FILLER_0_15_203
*1107 FILLER_0_15_215
*1108 FILLER_0_15_241
*1109 FILLER_0_15_249
*1110 FILLER_0_15_286
*1111 FILLER_0_15_298
*1112 FILLER_0_15_3
*1113 FILLER_0_15_30
*1114 FILLER_0_15_310
*1115 FILLER_0_15_333
*1116 FILLER_0_15_42
*1117 FILLER_0_15_57
*1118 FILLER_0_15_91
*1119 FILLER_0_16_102
*1120 FILLER_0_16_112
*1121 FILLER_0_16_122
*1122 FILLER_0_16_195
*1123 FILLER_0_16_197
*1124 FILLER_0_16_209
*1125 FILLER_0_16_242
*1126 FILLER_0_16_250
*1127 FILLER_0_16_289
*1128 FILLER_0_16_29
*1129 FILLER_0_16_3
*1130 FILLER_0_16_301
*1131 FILLER_0_16_332
*1132 FILLER_0_16_37
*1133 FILLER_0_16_67
*1134 FILLER_0_16_81
*1135 FILLER_0_16_85
*1136 FILLER_0_17_110
*1137 FILLER_0_17_120
*1138 FILLER_0_17_163
*1139 FILLER_0_17_167
*1140 FILLER_0_17_169
*1141 FILLER_0_17_187
*1142 FILLER_0_17_199
*1143 FILLER_0_17_211
*1144 FILLER_0_17_222
*1145 FILLER_0_17_225
*1146 FILLER_0_17_253
*1147 FILLER_0_17_295
*1148 FILLER_0_17_299
*1149 FILLER_0_17_3
*1150 FILLER_0_17_323
*1151 FILLER_0_17_333
*1152 FILLER_0_17_45
*1153 FILLER_0_17_84
*1154 FILLER_0_18_116
*1155 FILLER_0_18_120
*1156 FILLER_0_18_128
*1157 FILLER_0_18_137
*1158 FILLER_0_18_141
*1159 FILLER_0_18_159
*1160 FILLER_0_18_187
*1161 FILLER_0_18_195
*1162 FILLER_0_18_197
*1163 FILLER_0_18_209
*1164 FILLER_0_18_242
*1165 FILLER_0_18_249
*1166 FILLER_0_18_253
*1167 FILLER_0_18_261
*1168 FILLER_0_18_299
*1169 FILLER_0_18_3
*1170 FILLER_0_18_316
*1171 FILLER_0_18_332
*1172 FILLER_0_18_45
*1173 FILLER_0_18_49
*1174 FILLER_0_18_74
*1175 FILLER_0_18_85
*1176 FILLER_0_19_121
*1177 FILLER_0_19_125
*1178 FILLER_0_19_138
*1179 FILLER_0_19_154
*1180 FILLER_0_19_158
*1181 FILLER_0_19_194
*1182 FILLER_0_19_198
*1183 FILLER_0_19_222
*1184 FILLER_0_19_241
*1185 FILLER_0_19_253
*1186 FILLER_0_19_267
*1187 FILLER_0_19_271
*1188 FILLER_0_19_278
*1189 FILLER_0_19_288
*1190 FILLER_0_19_3
*1191 FILLER_0_19_309
*1192 FILLER_0_19_319
*1193 FILLER_0_19_334
*1194 FILLER_0_19_38
*1195 FILLER_0_19_57
*1196 FILLER_0_19_66
*1197 FILLER_0_19_70
*1198 FILLER_0_19_94
*1199 FILLER_0_1_105
*1200 FILLER_0_1_111
*1201 FILLER_0_1_113
*1202 FILLER_0_1_125
*1203 FILLER_0_1_137
*1204 FILLER_0_1_149
*1205 FILLER_0_1_15
*1206 FILLER_0_1_161
*1207 FILLER_0_1_167
*1208 FILLER_0_1_169
*1209 FILLER_0_1_181
*1210 FILLER_0_1_193
*1211 FILLER_0_1_205
*1212 FILLER_0_1_217
*1213 FILLER_0_1_223
*1214 FILLER_0_1_225
*1215 FILLER_0_1_237
*1216 FILLER_0_1_249
*1217 FILLER_0_1_261
*1218 FILLER_0_1_27
*1219 FILLER_0_1_273
*1220 FILLER_0_1_279
*1221 FILLER_0_1_281
*1222 FILLER_0_1_293
*1223 FILLER_0_1_3
*1224 FILLER_0_1_305
*1225 FILLER_0_1_317
*1226 FILLER_0_1_329
*1227 FILLER_0_1_39
*1228 FILLER_0_1_51
*1229 FILLER_0_1_55
*1230 FILLER_0_1_57
*1231 FILLER_0_1_69
*1232 FILLER_0_1_81
*1233 FILLER_0_1_93
*1234 FILLER_0_20_121
*1235 FILLER_0_20_131
*1236 FILLER_0_20_165
*1237 FILLER_0_20_185
*1238 FILLER_0_20_193
*1239 FILLER_0_20_197
*1240 FILLER_0_20_201
*1241 FILLER_0_20_210
*1242 FILLER_0_20_235
*1243 FILLER_0_20_25
*1244 FILLER_0_20_269
*1245 FILLER_0_20_281
*1246 FILLER_0_20_287
*1247 FILLER_0_20_3
*1248 FILLER_0_20_307
*1249 FILLER_0_20_309
*1250 FILLER_0_20_44
*1251 FILLER_0_20_85
*1252 FILLER_0_20_89
*1253 FILLER_0_21_111
*1254 FILLER_0_21_113
*1255 FILLER_0_21_130
*1256 FILLER_0_21_140
*1257 FILLER_0_21_158
*1258 FILLER_0_21_197
*1259 FILLER_0_21_235
*1260 FILLER_0_21_250
*1261 FILLER_0_21_262
*1262 FILLER_0_21_267
*1263 FILLER_0_21_279
*1264 FILLER_0_21_290
*1265 FILLER_0_21_302
*1266 FILLER_0_21_310
*1267 FILLER_0_21_332
*1268 FILLER_0_21_34
*1269 FILLER_0_21_45
*1270 FILLER_0_21_57
*1271 FILLER_0_21_62
*1272 FILLER_0_21_93
*1273 FILLER_0_22_113
*1274 FILLER_0_22_117
*1275 FILLER_0_22_141
*1276 FILLER_0_22_184
*1277 FILLER_0_22_239
*1278 FILLER_0_22_25
*1279 FILLER_0_22_250
*1280 FILLER_0_22_271
*1281 FILLER_0_22_295
*1282 FILLER_0_22_3
*1283 FILLER_0_22_307
*1284 FILLER_0_22_309
*1285 FILLER_0_22_321
*1286 FILLER_0_22_333
*1287 FILLER_0_22_45
*1288 FILLER_0_22_62
*1289 FILLER_0_22_66
*1290 FILLER_0_22_75
*1291 FILLER_0_22_93
*1292 FILLER_0_23_11
*1293 FILLER_0_23_130
*1294 FILLER_0_23_140
*1295 FILLER_0_23_183
*1296 FILLER_0_23_195
*1297 FILLER_0_23_233
*1298 FILLER_0_23_271
*1299 FILLER_0_23_279
*1300 FILLER_0_23_3
*1301 FILLER_0_23_300
*1302 FILLER_0_23_306
*1303 FILLER_0_23_332
*1304 FILLER_0_23_36
*1305 FILLER_0_23_54
*1306 FILLER_0_23_65
*1307 FILLER_0_23_90
*1308 FILLER_0_24_115
*1309 FILLER_0_24_176
*1310 FILLER_0_24_185
*1311 FILLER_0_24_193
*1312 FILLER_0_24_240
*1313 FILLER_0_24_249
*1314 FILLER_0_24_26
*1315 FILLER_0_24_275
*1316 FILLER_0_24_283
*1317 FILLER_0_24_29
*1318 FILLER_0_24_3
*1319 FILLER_0_24_304
*1320 FILLER_0_24_309
*1321 FILLER_0_24_326
*1322 FILLER_0_24_334
*1323 FILLER_0_24_61
*1324 FILLER_0_24_85
*1325 FILLER_0_24_89
*1326 FILLER_0_24_9
*1327 FILLER_0_24_98
*1328 FILLER_0_25_101
*1329 FILLER_0_25_11
*1330 FILLER_0_25_129
*1331 FILLER_0_25_155
*1332 FILLER_0_25_164
*1333 FILLER_0_25_178
*1334 FILLER_0_25_196
*1335 FILLER_0_25_200
*1336 FILLER_0_25_243
*1337 FILLER_0_25_267
*1338 FILLER_0_25_278
*1339 FILLER_0_25_29
*1340 FILLER_0_25_297
*1341 FILLER_0_25_3
*1342 FILLER_0_25_309
*1343 FILLER_0_25_334
*1344 FILLER_0_25_55
*1345 FILLER_0_25_57
*1346 FILLER_0_25_93
*1347 FILLER_0_26_136
*1348 FILLER_0_26_141
*1349 FILLER_0_26_15
*1350 FILLER_0_26_152
*1351 FILLER_0_26_169
*1352 FILLER_0_26_19
*1353 FILLER_0_26_195
*1354 FILLER_0_26_197
*1355 FILLER_0_26_249
*1356 FILLER_0_26_280
*1357 FILLER_0_26_29
*1358 FILLER_0_26_3
*1359 FILLER_0_26_304
*1360 FILLER_0_26_314
*1361 FILLER_0_26_334
*1362 FILLER_0_26_56
*1363 FILLER_0_26_62
*1364 FILLER_0_26_79
*1365 FILLER_0_26_83
*1366 FILLER_0_26_96
*1367 FILLER_0_27_103
*1368 FILLER_0_27_146
*1369 FILLER_0_27_15
*1370 FILLER_0_27_184
*1371 FILLER_0_27_221
*1372 FILLER_0_27_233
*1373 FILLER_0_27_265
*1374 FILLER_0_27_278
*1375 FILLER_0_27_281
*1376 FILLER_0_27_294
*1377 FILLER_0_27_3
*1378 FILLER_0_27_305
*1379 FILLER_0_27_328
*1380 FILLER_0_27_334
*1381 FILLER_0_27_47
*1382 FILLER_0_27_55
*1383 FILLER_0_27_57
*1384 FILLER_0_27_87
*1385 FILLER_0_28_101
*1386 FILLER_0_28_118
*1387 FILLER_0_28_138
*1388 FILLER_0_28_144
*1389 FILLER_0_28_156
*1390 FILLER_0_28_165
*1391 FILLER_0_28_174
*1392 FILLER_0_28_186
*1393 FILLER_0_28_194
*1394 FILLER_0_28_197
*1395 FILLER_0_28_229
*1396 FILLER_0_28_251
*1397 FILLER_0_28_272
*1398 FILLER_0_28_276
*1399 FILLER_0_28_3
*1400 FILLER_0_28_309
*1401 FILLER_0_28_327
*1402 FILLER_0_28_53
*1403 FILLER_0_28_83
*1404 FILLER_0_28_9
*1405 FILLER_0_29_110
*1406 FILLER_0_29_113
*1407 FILLER_0_29_136
*1408 FILLER_0_29_144
*1409 FILLER_0_29_157
*1410 FILLER_0_29_166
*1411 FILLER_0_29_175
*1412 FILLER_0_29_183
*1413 FILLER_0_29_189
*1414 FILLER_0_29_201
*1415 FILLER_0_29_225
*1416 FILLER_0_29_266
*1417 FILLER_0_29_297
*1418 FILLER_0_29_3
*1419 FILLER_0_29_314
*1420 FILLER_0_29_326
*1421 FILLER_0_29_334
*1422 FILLER_0_29_53
*1423 FILLER_0_29_57
*1424 FILLER_0_29_75
*1425 FILLER_0_29_84
*1426 FILLER_0_29_9
*1427 FILLER_0_29_93
*1428 FILLER_0_2_103
*1429 FILLER_0_2_120
*1430 FILLER_0_2_133
*1431 FILLER_0_2_139
*1432 FILLER_0_2_141
*1433 FILLER_0_2_15
*1434 FILLER_0_2_153
*1435 FILLER_0_2_165
*1436 FILLER_0_2_177
*1437 FILLER_0_2_189
*1438 FILLER_0_2_195
*1439 FILLER_0_2_197
*1440 FILLER_0_2_209
*1441 FILLER_0_2_221
*1442 FILLER_0_2_233
*1443 FILLER_0_2_245
*1444 FILLER_0_2_251
*1445 FILLER_0_2_253
*1446 FILLER_0_2_265
*1447 FILLER_0_2_27
*1448 FILLER_0_2_277
*1449 FILLER_0_2_289
*1450 FILLER_0_2_29
*1451 FILLER_0_2_3
*1452 FILLER_0_2_301
*1453 FILLER_0_2_307
*1454 FILLER_0_2_309
*1455 FILLER_0_2_321
*1456 FILLER_0_2_333
*1457 FILLER_0_2_41
*1458 FILLER_0_2_53
*1459 FILLER_0_2_65
*1460 FILLER_0_2_77
*1461 FILLER_0_2_83
*1462 FILLER_0_2_85
*1463 FILLER_0_2_97
*1464 FILLER_0_30_134
*1465 FILLER_0_30_141
*1466 FILLER_0_30_15
*1467 FILLER_0_30_164
*1468 FILLER_0_30_176
*1469 FILLER_0_30_184
*1470 FILLER_0_30_194
*1471 FILLER_0_30_197
*1472 FILLER_0_30_205
*1473 FILLER_0_30_212
*1474 FILLER_0_30_223
*1475 FILLER_0_30_232
*1476 FILLER_0_30_249
*1477 FILLER_0_30_258
*1478 FILLER_0_30_27
*1479 FILLER_0_30_3
*1480 FILLER_0_30_312
*1481 FILLER_0_30_330
*1482 FILLER_0_30_334
*1483 FILLER_0_30_43
*1484 FILLER_0_30_55
*1485 FILLER_0_30_62
*1486 FILLER_0_30_82
*1487 FILLER_0_30_89
*1488 FILLER_0_31_102
*1489 FILLER_0_31_113
*1490 FILLER_0_31_133
*1491 FILLER_0_31_141
*1492 FILLER_0_31_15
*1493 FILLER_0_31_159
*1494 FILLER_0_31_167
*1495 FILLER_0_31_169
*1496 FILLER_0_31_187
*1497 FILLER_0_31_225
*1498 FILLER_0_31_237
*1499 FILLER_0_31_247
*1500 FILLER_0_31_259
*1501 FILLER_0_31_271
*1502 FILLER_0_31_279
*1503 FILLER_0_31_281
*1504 FILLER_0_31_290
*1505 FILLER_0_31_3
*1506 FILLER_0_31_300
*1507 FILLER_0_31_312
*1508 FILLER_0_31_318
*1509 FILLER_0_31_330
*1510 FILLER_0_31_334
*1511 FILLER_0_31_41
*1512 FILLER_0_31_53
*1513 FILLER_0_31_57
*1514 FILLER_0_31_87
*1515 FILLER_0_31_95
*1516 FILLER_0_32_105
*1517 FILLER_0_32_11
*1518 FILLER_0_32_123
*1519 FILLER_0_32_135
*1520 FILLER_0_32_139
*1521 FILLER_0_32_160
*1522 FILLER_0_32_164
*1523 FILLER_0_32_216
*1524 FILLER_0_32_228
*1525 FILLER_0_32_235
*1526 FILLER_0_32_247
*1527 FILLER_0_32_251
*1528 FILLER_0_32_253
*1529 FILLER_0_32_275
*1530 FILLER_0_32_282
*1531 FILLER_0_32_3
*1532 FILLER_0_32_304
*1533 FILLER_0_32_330
*1534 FILLER_0_32_334
*1535 FILLER_0_32_36
*1536 FILLER_0_32_44
*1537 FILLER_0_32_85
*1538 FILLER_0_32_97
*1539 FILLER_0_33_102
*1540 FILLER_0_33_109
*1541 FILLER_0_33_120
*1542 FILLER_0_33_140
*1543 FILLER_0_33_15
*1544 FILLER_0_33_159
*1545 FILLER_0_33_167
*1546 FILLER_0_33_169
*1547 FILLER_0_33_209
*1548 FILLER_0_33_221
*1549 FILLER_0_33_225
*1550 FILLER_0_33_242
*1551 FILLER_0_33_246
*1552 FILLER_0_33_252
*1553 FILLER_0_33_279
*1554 FILLER_0_33_281
*1555 FILLER_0_33_293
*1556 FILLER_0_33_3
*1557 FILLER_0_33_333
*1558 FILLER_0_33_34
*1559 FILLER_0_33_46
*1560 FILLER_0_33_52
*1561 FILLER_0_33_57
*1562 FILLER_0_33_74
*1563 FILLER_0_33_90
*1564 FILLER_0_34_118
*1565 FILLER_0_34_139
*1566 FILLER_0_34_141
*1567 FILLER_0_34_145
*1568 FILLER_0_34_149
*1569 FILLER_0_34_161
*1570 FILLER_0_34_173
*1571 FILLER_0_34_181
*1572 FILLER_0_34_197
*1573 FILLER_0_34_209
*1574 FILLER_0_34_213
*1575 FILLER_0_34_230
*1576 FILLER_0_34_251
*1577 FILLER_0_34_256
*1578 FILLER_0_34_27
*1579 FILLER_0_34_277
*1580 FILLER_0_34_291
*1581 FILLER_0_34_3
*1582 FILLER_0_34_302
*1583 FILLER_0_34_309
*1584 FILLER_0_34_333
*1585 FILLER_0_34_50
*1586 FILLER_0_34_62
*1587 FILLER_0_34_68
*1588 FILLER_0_34_78
*1589 FILLER_0_34_85
*1590 FILLER_0_34_97
*1591 FILLER_0_35_109
*1592 FILLER_0_35_124
*1593 FILLER_0_35_130
*1594 FILLER_0_35_152
*1595 FILLER_0_35_162
*1596 FILLER_0_35_169
*1597 FILLER_0_35_177
*1598 FILLER_0_35_203
*1599 FILLER_0_35_215
*1600 FILLER_0_35_223
*1601 FILLER_0_35_225
*1602 FILLER_0_35_233
*1603 FILLER_0_35_297
*1604 FILLER_0_35_3
*1605 FILLER_0_35_305
*1606 FILLER_0_35_316
*1607 FILLER_0_35_334
*1608 FILLER_0_35_42
*1609 FILLER_0_35_54
*1610 FILLER_0_35_57
*1611 FILLER_0_35_69
*1612 FILLER_0_35_99
*1613 FILLER_0_36_104
*1614 FILLER_0_36_123
*1615 FILLER_0_36_131
*1616 FILLER_0_36_141
*1617 FILLER_0_36_15
*1618 FILLER_0_36_167
*1619 FILLER_0_36_194
*1620 FILLER_0_36_216
*1621 FILLER_0_36_228
*1622 FILLER_0_36_236
*1623 FILLER_0_36_261
*1624 FILLER_0_36_288
*1625 FILLER_0_36_299
*1626 FILLER_0_36_3
*1627 FILLER_0_36_309
*1628 FILLER_0_36_49
*1629 FILLER_0_36_61
*1630 FILLER_0_36_82
*1631 FILLER_0_37_113
*1632 FILLER_0_37_169
*1633 FILLER_0_37_181
*1634 FILLER_0_37_221
*1635 FILLER_0_37_225
*1636 FILLER_0_37_276
*1637 FILLER_0_37_297
*1638 FILLER_0_37_3
*1639 FILLER_0_37_301
*1640 FILLER_0_37_333
*1641 FILLER_0_37_48
*1642 FILLER_0_37_57
*1643 FILLER_0_37_7
*1644 FILLER_0_37_79