*SPEF "ieee 1481-1999"
*DESIGN "tt_um_flappy_bird"
*DATE "13:37:08 Wednesday April 10, 2024"
*VENDOR "The OpenROAD Project"
*PROGRAM "OpenROAD"
*VERSION "0889970d1790a2617e69f253221b8bd7626e51dc"
*DESIGN_FLOW "NAME_SCOPE LOCAL" "PIN_CAP NONE"
*DIVIDER /
*DELIMITER :
*BUS_DELIMITER []
*T_UNIT 1 NS
*C_UNIT 1 PF
*R_UNIT 1 OHM
*L_UNIT 1 HENRY

*NAME_MAP
*3 clk
*4 ena
*5 rst_n
*6 ui_in[0]
*7 ui_in[1]
*8 ui_in[2]
*9 ui_in[3]
*10 ui_in[4]
*11 ui_in[5]
*12 ui_in[6]
*13 ui_in[7]
*14 uio_in[0]
*15 uio_in[1]
*16 uio_in[2]
*17 uio_in[3]
*18 uio_in[4]
*19 uio_in[5]
*20 uio_in[6]
*21 uio_in[7]
*22 net6
*23 net7
*24 net8
*25 net9
*26 net10
*27 net11
*28 net12
*29 net13
*30 uio_out[0]
*31 uio_out[1]
*32 uio_out[2]
*33 uio_out[3]
*34 uio_out[4]
*35 uio_out[5]
*36 uio_out[6]
*37 uio_out[7]
*38 uo_out[0]
*39 uo_out[1]
*40 uo_out[2]
*41 uo_out[3]
*42 uo_out[4]
*43 uo_out[5]
*44 uo_out[6]
*45 uo_out[7]
*46 State\[0\]
*47 State\[1\]
*48 State\[2\]
*49 _0000_
*50 _0001_
*51 _0002_
*52 _0010_
*53 _0011_
*54 _0012_
*55 _0013_
*56 _0014_
*57 _0015_
*58 _0016_
*59 _0017_
*60 _0018_
*61 _0019_
*62 _0020_
*63 _0021_
*64 _0022_
*65 _0023_
*66 _0024_
*67 _0025_
*68 _0026_
*69 _0027_
*70 _0028_
*71 _0029_
*72 _0030_
*73 _0031_
*74 _0032_
*75 _0033_
*76 _0034_
*77 _0035_
*78 _0036_
*79 _0037_
*80 _0038_
*81 _0039_
*82 _0040_
*83 _0041_
*84 _0042_
*85 _0043_
*86 _0044_
*87 _0045_
*88 _0046_
*89 _0047_
*90 _0048_
*91 _0049_
*92 _0050_
*93 _0051_
*94 _0052_
*95 _0053_
*96 _0054_
*97 _0055_
*98 _0056_
*99 _0057_
*100 _0058_
*101 _0059_
*102 _0060_
*103 _0061_
*104 _0062_
*105 _0063_
*106 _0064_
*107 _0065_
*108 _0066_
*109 _0067_
*110 _0068_
*111 _0069_
*112 _0070_
*113 _0071_
*114 _0072_
*115 _0073_
*116 _0074_
*117 _0075_
*118 _0076_
*119 _0077_
*120 _0078_
*121 _0079_
*122 _0080_
*123 _0081_
*124 _0082_
*125 _0083_
*126 _0084_
*127 _0085_
*128 _0086_
*129 _0087_
*130 _0088_
*131 _0089_
*132 _0090_
*133 _0091_
*134 _0092_
*135 _0093_
*136 _0094_
*137 _0095_
*138 _0096_
*139 _0097_
*140 _0098_
*141 _0099_
*142 _0100_
*143 _0101_
*144 _0102_
*145 _0103_
*146 _0104_
*147 _0105_
*148 _0106_
*149 _0107_
*150 _0108_
*151 _0109_
*152 _0110_
*153 _0111_
*154 _0112_
*155 _0113_
*156 _0114_
*157 _0115_
*158 _0116_
*159 _0117_
*160 _0118_
*161 _0119_
*162 _0120_
*163 _0121_
*164 _0122_
*165 _0123_
*166 _0124_
*167 _0125_
*168 _0126_
*169 _0127_
*170 _0128_
*171 _0129_
*172 _0130_
*173 _0131_
*174 _0132_
*175 _0133_
*176 _0134_
*177 _0135_
*178 _0136_
*179 _0137_
*180 _0138_
*181 _0139_
*182 _0140_
*183 _0141_
*184 _0142_
*185 _0143_
*186 _0144_
*187 _0145_
*188 _0146_
*189 _0147_
*190 _0148_
*191 _0149_
*192 _0150_
*193 _0151_
*194 _0152_
*195 _0153_
*196 _0154_
*197 _0155_
*198 _0156_
*199 _0157_
*200 _0158_
*201 _0159_
*202 _0160_
*203 _0161_
*204 _0162_
*205 _0163_
*206 _0164_
*207 _0165_
*208 _0166_
*209 _0167_
*210 _0168_
*211 _0169_
*212 _0170_
*213 _0171_
*214 _0172_
*215 _0173_
*216 _0174_
*217 _0175_
*218 _0176_
*219 _0177_
*220 _0178_
*221 _0179_
*222 _0180_
*223 _0181_
*224 _0182_
*225 _0183_
*226 _0184_
*227 _0185_
*228 _0186_
*229 _0187_
*230 _0188_
*231 _0189_
*232 _0190_
*233 _0191_
*234 _0192_
*235 _0193_
*236 _0194_
*237 _0195_
*238 _0196_
*239 _0197_
*240 _0198_
*241 _0199_
*242 _0200_
*243 _0201_
*244 _0202_
*245 _0203_
*246 _0204_
*247 _0205_
*248 _0206_
*249 _0207_
*250 _0208_
*251 _0209_
*252 _0210_
*253 _0211_
*254 _0212_
*255 _0213_
*256 _0214_
*257 _0215_
*258 _0216_
*259 _0217_
*260 _0218_
*261 _0219_
*262 _0220_
*263 _0221_
*264 _0222_
*265 _0223_
*266 _0224_
*267 _0225_
*268 _0226_
*269 _0227_
*270 _0228_
*271 _0229_
*272 _0230_
*273 _0231_
*274 _0232_
*275 _0233_
*276 _0234_
*277 _0235_
*278 _0236_
*279 _0237_
*280 _0238_
*281 _0239_
*282 _0240_
*283 _0241_
*284 _0242_
*285 _0243_
*286 _0244_
*287 _0245_
*288 _0246_
*289 _0247_
*290 _0248_
*291 _0249_
*292 _0250_
*293 _0251_
*294 _0252_
*295 _0253_
*296 _0254_
*297 _0255_
*298 _0256_
*299 _0257_
*300 _0258_
*301 _0259_
*302 _0260_
*303 _0261_
*304 _0262_
*305 _0263_
*306 _0264_
*307 _0265_
*308 _0266_
*309 _0267_
*310 _0268_
*311 _0269_
*312 _0270_
*313 _0271_
*314 _0272_
*315 _0273_
*316 _0274_
*317 _0275_
*318 _0276_
*319 _0277_
*320 _0278_
*321 _0279_
*322 _0280_
*323 _0281_
*324 _0282_
*325 _0283_
*326 _0284_
*327 _0285_
*328 _0286_
*329 _0287_
*330 _0288_
*331 _0289_
*332 _0290_
*333 _0291_
*334 _0292_
*335 _0293_
*336 _0294_
*337 _0295_
*338 _0296_
*339 _0297_
*340 _0298_
*341 _0299_
*342 _0300_
*343 _0301_
*344 _0302_
*345 _0303_
*346 _0304_
*347 _0305_
*348 _0306_
*349 _0307_
*350 _0308_
*351 _0309_
*352 _0310_
*353 _0311_
*354 _0312_
*355 _0313_
*356 _0314_
*357 _0315_
*358 _0316_
*359 _0317_
*360 _0318_
*361 _0319_
*362 _0320_
*363 _0321_
*364 _0322_
*365 _0323_
*366 _0324_
*367 _0325_
*368 _0326_
*369 _0327_
*370 _0328_
*371 _0329_
*372 _0330_
*373 _0331_
*374 _0332_
*375 _0333_
*376 _0334_
*377 _0335_
*378 _0336_
*379 _0337_
*380 _0338_
*381 _0339_
*382 _0340_
*383 _0341_
*384 _0342_
*385 _0343_
*386 _0344_
*387 _0345_
*388 _0346_
*389 _0347_
*390 _0348_
*391 _0349_
*392 _0350_
*393 _0351_
*394 _0352_
*395 _0353_
*396 _0354_
*397 _0355_
*398 _0356_
*399 _0357_
*400 _0358_
*401 _0359_
*402 _0360_
*403 _0361_
*404 _0362_
*405 _0363_
*406 _0364_
*407 _0365_
*408 _0366_
*409 _0367_
*410 _0368_
*411 _0369_
*412 _0370_
*413 _0371_
*414 _0372_
*415 _0373_
*416 _0374_
*417 _0375_
*418 _0376_
*419 _0377_
*420 _0378_
*421 _0379_
*422 _0380_
*423 _0381_
*424 _0382_
*425 _0383_
*426 _0384_
*427 _0385_
*428 _0386_
*429 _0387_
*430 _0388_
*431 _0389_
*432 _0390_
*433 _0391_
*434 _0392_
*435 _0393_
*436 _0394_
*437 _0395_
*438 _0396_
*439 _0397_
*440 _0398_
*441 _0399_
*442 _0400_
*443 _0401_
*444 _0402_
*445 _0403_
*446 _0404_
*447 _0405_
*448 _0406_
*449 _0407_
*450 _0408_
*451 _0409_
*452 _0410_
*453 _0411_
*454 _0412_
*455 _0413_
*456 _0414_
*457 _0415_
*458 _0416_
*459 _0417_
*460 _0418_
*461 _0419_
*462 _0420_
*463 _0421_
*464 _0422_
*465 _0423_
*466 _0424_
*467 _0425_
*468 _0426_
*469 _0427_
*470 _0428_
*471 _0429_
*472 _0430_
*473 _0431_
*474 _0432_
*475 _0433_
*476 _0434_
*477 _0435_
*478 _0436_
*479 _0437_
*480 _0438_
*481 _0439_
*482 _0440_
*483 _0441_
*484 _0442_
*485 _0443_
*486 _0444_
*487 _0445_
*488 _0446_
*489 _0447_
*490 _0448_
*491 _0449_
*492 _0450_
*493 _0451_
*494 _0452_
*495 _0453_
*496 _0454_
*497 _0455_
*498 _0456_
*499 _0457_
*500 _0458_
*501 _0459_
*502 _0460_
*503 _0461_
*504 _0462_
*505 _0463_
*506 _0464_
*507 _0465_
*508 _0466_
*509 _0467_
*510 _0468_
*511 _0469_
*512 _0470_
*513 _0471_
*514 _0472_
*515 action_dut\.add_beam_counter\[0\]
*516 action_dut\.add_beam_counter\[1\]
*517 action_dut\.beam_matrix\[0\]
*518 action_dut\.beam_matrix\[10\]
*519 action_dut\.beam_matrix\[11\]
*520 action_dut\.beam_matrix\[12\]
*521 action_dut\.beam_matrix\[13\]
*522 action_dut\.beam_matrix\[14\]
*523 action_dut\.beam_matrix\[15\]
*524 action_dut\.beam_matrix\[16\]
*525 action_dut\.beam_matrix\[17\]
*526 action_dut\.beam_matrix\[18\]
*527 action_dut\.beam_matrix\[19\]
*528 action_dut\.beam_matrix\[1\]
*529 action_dut\.beam_matrix\[20\]
*530 action_dut\.beam_matrix\[21\]
*531 action_dut\.beam_matrix\[22\]
*532 action_dut\.beam_matrix\[23\]
*533 action_dut\.beam_matrix\[24\]
*534 action_dut\.beam_matrix\[25\]
*535 action_dut\.beam_matrix\[26\]
*536 action_dut\.beam_matrix\[27\]
*537 action_dut\.beam_matrix\[28\]
*538 action_dut\.beam_matrix\[29\]
*539 action_dut\.beam_matrix\[2\]
*540 action_dut\.beam_matrix\[30\]
*541 action_dut\.beam_matrix\[31\]
*542 action_dut\.beam_matrix\[32\]
*543 action_dut\.beam_matrix\[33\]
*544 action_dut\.beam_matrix\[34\]
*545 action_dut\.beam_matrix\[35\]
*546 action_dut\.beam_matrix\[36\]
*547 action_dut\.beam_matrix\[37\]
*548 action_dut\.beam_matrix\[38\]
*549 action_dut\.beam_matrix\[39\]
*550 action_dut\.beam_matrix\[3\]
*551 action_dut\.beam_matrix\[40\]
*552 action_dut\.beam_matrix\[41\]
*553 action_dut\.beam_matrix\[42\]
*554 action_dut\.beam_matrix\[43\]
*555 action_dut\.beam_matrix\[44\]
*556 action_dut\.beam_matrix\[45\]
*557 action_dut\.beam_matrix\[46\]
*558 action_dut\.beam_matrix\[47\]
*559 action_dut\.beam_matrix\[48\]
*560 action_dut\.beam_matrix\[49\]
*561 action_dut\.beam_matrix\[4\]
*562 action_dut\.beam_matrix\[50\]
*563 action_dut\.beam_matrix\[51\]
*564 action_dut\.beam_matrix\[52\]
*565 action_dut\.beam_matrix\[53\]
*566 action_dut\.beam_matrix\[54\]
*567 action_dut\.beam_matrix\[55\]
*568 action_dut\.beam_matrix\[56\]
*569 action_dut\.beam_matrix\[57\]
*570 action_dut\.beam_matrix\[58\]
*571 action_dut\.beam_matrix\[59\]
*572 action_dut\.beam_matrix\[5\]
*573 action_dut\.beam_matrix\[60\]
*574 action_dut\.beam_matrix\[61\]
*575 action_dut\.beam_matrix\[62\]
*576 action_dut\.beam_matrix\[63\]
*577 action_dut\.beam_matrix\[6\]
*578 action_dut\.beam_matrix\[7\]
*579 action_dut\.beam_matrix\[8\]
*580 action_dut\.beam_matrix\[9\]
*581 action_dut\.bird_pos\[0\]
*582 action_dut\.bird_pos\[1\]
*583 action_dut\.bird_pos\[2\]
*584 action_dut\.bird_pos\[3\]
*585 action_dut\.bird_pos\[4\]
*586 action_dut\.bird_pos\[5\]
*587 action_dut\.bird_pos\[6\]
*588 action_dut\.bird_pos\[7\]
*589 action_dut\.change_counter\[0\]
*590 action_dut\.change_counter\[1\]
*591 action_dut\.change_counter\[2\]
*592 action_dut\.change_counter\[3\]
*593 action_dut\.dead
*594 action_dut\.down_i
*595 action_dut\.e_act_i
*596 action_dut\.matrix\[0\]
*597 action_dut\.matrix\[10\]
*598 action_dut\.matrix\[11\]
*599 action_dut\.matrix\[12\]
*600 action_dut\.matrix\[13\]
*601 action_dut\.matrix\[14\]
*602 action_dut\.matrix\[15\]
*603 action_dut\.matrix\[16\]
*604 action_dut\.matrix\[17\]
*605 action_dut\.matrix\[18\]
*606 action_dut\.matrix\[19\]
*607 action_dut\.matrix\[1\]
*608 action_dut\.matrix\[20\]
*609 action_dut\.matrix\[21\]
*610 action_dut\.matrix\[22\]
*611 action_dut\.matrix\[23\]
*612 action_dut\.matrix\[24\]
*613 action_dut\.matrix\[25\]
*614 action_dut\.matrix\[26\]
*615 action_dut\.matrix\[27\]
*616 action_dut\.matrix\[28\]
*617 action_dut\.matrix\[29\]
*618 action_dut\.matrix\[2\]
*619 action_dut\.matrix\[30\]
*620 action_dut\.matrix\[31\]
*621 action_dut\.matrix\[32\]
*622 action_dut\.matrix\[33\]
*623 action_dut\.matrix\[34\]
*624 action_dut\.matrix\[35\]
*625 action_dut\.matrix\[36\]
*626 action_dut\.matrix\[37\]
*627 action_dut\.matrix\[38\]
*628 action_dut\.matrix\[39\]
*629 action_dut\.matrix\[3\]
*630 action_dut\.matrix\[40\]
*631 action_dut\.matrix\[41\]
*632 action_dut\.matrix\[42\]
*633 action_dut\.matrix\[43\]
*634 action_dut\.matrix\[44\]
*635 action_dut\.matrix\[45\]
*636 action_dut\.matrix\[46\]
*637 action_dut\.matrix\[47\]
*638 action_dut\.matrix\[48\]
*639 action_dut\.matrix\[49\]
*640 action_dut\.matrix\[4\]
*641 action_dut\.matrix\[50\]
*642 action_dut\.matrix\[51\]
*643 action_dut\.matrix\[52\]
*644 action_dut\.matrix\[53\]
*645 action_dut\.matrix\[54\]
*646 action_dut\.matrix\[55\]
*647 action_dut\.matrix\[56\]
*648 action_dut\.matrix\[57\]
*649 action_dut\.matrix\[58\]
*650 action_dut\.matrix\[59\]
*651 action_dut\.matrix\[5\]
*652 action_dut\.matrix\[60\]
*653 action_dut\.matrix\[61\]
*654 action_dut\.matrix\[62\]
*655 action_dut\.matrix\[63\]
*656 action_dut\.matrix\[6\]
*657 action_dut\.matrix\[7\]
*658 action_dut\.matrix\[8\]
*659 action_dut\.matrix\[9\]
*660 action_dut\.random_counter\[0\]
*661 action_dut\.random_counter\[1\]
*662 action_dut\.random_counter\[2\]
*663 action_dut\.random_counter\[3\]
*664 action_dut\.random_counter\[4\]
*665 action_dut\.up_i
*666 clknet_0_clk
*667 clknet_4_0_0_clk
*668 clknet_4_10_0_clk
*669 clknet_4_11_0_clk
*670 clknet_4_12_0_clk
*671 clknet_4_13_0_clk
*672 clknet_4_14_0_clk
*673 clknet_4_15_0_clk
*674 clknet_4_1_0_clk
*675 clknet_4_2_0_clk
*676 clknet_4_3_0_clk
*677 clknet_4_4_0_clk
*678 clknet_4_5_0_clk
*679 clknet_4_6_0_clk
*680 clknet_4_7_0_clk
*681 clknet_4_8_0_clk
*682 clknet_4_9_0_clk
*683 display_dut\.clk_new\[0\]
*684 display_dut\.clk_new\[10\]
*685 display_dut\.clk_new\[11\]
*686 display_dut\.clk_new\[1\]
*687 display_dut\.clk_new\[2\]
*688 display_dut\.clk_new\[3\]
*689 display_dut\.clk_new\[4\]
*690 display_dut\.clk_new\[5\]
*691 display_dut\.clk_new\[6\]
*692 display_dut\.clk_new\[7\]
*693 display_dut\.clk_new\[8\]
*694 display_dut\.clk_new\[9\]
*695 display_dut\.d_disp
*696 display_dut\.e_disp
*697 display_dut\.row_d\[0\]
*698 display_dut\.row_d\[1\]
*699 display_dut\.row_d\[2\]
*700 display_dut\.row_d\[3\]
*701 display_dut\.row_d\[4\]
*702 display_dut\.row_d\[5\]
*703 display_dut\.row_d\[6\]
*704 display_dut\.row_d\[7\]
*705 display_dut\.row_d\[8\]
*706 e_inp
*707 get_input_dut\.d_inp
*708 get_input_dut\.left_cr\[0\]
*709 get_input_dut\.left_cr\[1\]
*710 get_input_dut\.right_cr\[0\]
*711 get_input_dut\.right_cr\[1\]
*712 net1
*713 net100
*714 net101
*715 net102
*716 net103
*717 net104
*718 net105
*719 net106
*720 net107
*721 net108
*722 net109
*723 net110
*724 net111
*725 net112
*726 net113
*727 net114
*728 net115
*729 net116
*730 net117
*731 net118
*732 net119
*733 net120
*734 net121
*735 net122
*736 net123
*737 net124
*738 net125
*739 net126
*740 net127
*741 net128
*742 net129
*743 net130
*744 net131
*745 net132
*746 net133
*747 net134
*748 net135
*749 net136
*750 net137
*751 net138
*752 net139
*753 net14
*754 net140
*755 net141
*756 net142
*757 net143
*758 net144
*759 net145
*760 net146
*761 net147
*762 net148
*763 net149
*764 net15
*765 net150
*766 net151
*767 net152
*768 net153
*769 net154
*770 net155
*771 net156
*772 net157
*773 net158
*774 net159
*775 net16
*776 net160
*777 net161
*778 net162
*779 net163
*780 net164
*781 net165
*782 net166
*783 net167
*784 net168
*785 net169
*786 net17
*787 net170
*788 net171
*789 net172
*790 net173
*791 net174
*792 net175
*793 net176
*794 net177
*795 net178
*796 net179
*797 net18
*798 net180
*799 net181
*800 net182
*801 net183
*802 net184
*803 net185
*804 net186
*805 net187
*806 net188
*807 net189
*808 net19
*809 net190
*810 net191
*811 net192
*812 net193
*813 net194
*814 net195
*815 net196
*816 net197
*817 net198
*818 net199
*819 net2
*820 net20
*821 net200
*822 net201
*823 net202
*824 net203
*825 net204
*826 net205
*827 net206
*828 net207
*829 net208
*830 net209
*831 net21
*832 net210
*833 net211
*834 net212
*835 net213
*836 net214
*837 net215
*838 net216
*839 net217
*840 net218
*841 net219
*842 net22
*843 net220
*844 net221
*845 net222
*846 net223
*847 net224
*848 net225
*849 net226
*850 net227
*851 net228
*852 net229
*853 net23
*854 net230
*855 net231
*856 net232
*857 net233
*858 net234
*859 net235
*860 net236
*861 net237
*862 net238
*863 net239
*864 net24
*865 net240
*866 net241
*867 net242
*868 net243
*869 net244
*870 net245
*871 net246
*872 net247
*873 net248
*874 net249
*875 net25
*876 net250
*877 net251
*878 net252
*879 net253
*880 net254
*881 net255
*882 net256
*883 net257
*884 net258
*885 net259
*886 net26
*887 net260
*888 net261
*889 net262
*890 net263
*891 net264
*892 net265
*893 net266
*894 net267
*895 net268
*896 net269
*897 net27
*898 net270
*899 net271
*900 net272
*901 net273
*902 net28
*903 net29
*904 net3
*905 net30
*906 net31
*907 net32
*908 net33
*909 net34
*910 net35
*911 net36
*912 net37
*913 net38
*914 net39
*915 net4
*916 net40
*917 net41
*918 net42
*919 net43
*920 net44
*921 net45
*922 net46
*923 net47
*924 net48
*925 net49
*926 net5
*927 net50
*928 net51
*929 net52
*930 net53
*931 net54
*932 net55
*933 net56
*934 net57
*935 net58
*936 net59
*937 net60
*938 net61
*939 net62
*940 net63
*941 net64
*942 net65
*943 net66
*944 net67
*945 net68
*946 net69
*947 net70
*948 net71
*949 net72
*950 net73
*951 net74
*952 net75
*953 net76
*954 net77
*955 net78
*956 net79
*957 net80
*958 net81
*959 net82
*960 net83
*961 net84
*962 net85
*963 net86
*964 net87
*965 net88
*966 net89
*967 net90
*968 net91
*969 net92
*970 net93
*971 net94
*972 net95
*973 net96
*974 net97
*975 net98
*976 net99
*977 tReset
*978 ANTENNA_1
*979 FILLER_0_0_109
*980 FILLER_0_0_113
*981 FILLER_0_0_125
*982 FILLER_0_0_137
*983 FILLER_0_0_141
*984 FILLER_0_0_15
*985 FILLER_0_0_153
*986 FILLER_0_0_165
*987 FILLER_0_0_169
*988 FILLER_0_0_181
*989 FILLER_0_0_193
*990 FILLER_0_0_197
*991 FILLER_0_0_209
*992 FILLER_0_0_221
*993 FILLER_0_0_225
*994 FILLER_0_0_237
*995 FILLER_0_0_249
*996 FILLER_0_0_253
*997 FILLER_0_0_265
*998 FILLER_0_0_27
*999 FILLER_0_0_277
*1000 FILLER_0_0_281
*1001 FILLER_0_0_29
*1002 FILLER_0_0_293
*1003 FILLER_0_0_3
*1004 FILLER_0_0_305
*1005 FILLER_0_0_309
*1006 FILLER_0_0_321
*1007 FILLER_0_0_333
*1008 FILLER_0_0_41
*1009 FILLER_0_0_53
*1010 FILLER_0_0_57
*1011 FILLER_0_0_69
*1012 FILLER_0_0_81
*1013 FILLER_0_0_85
*1014 FILLER_0_0_97
*1015 FILLER_0_10_117
*1016 FILLER_0_10_128
*1017 FILLER_0_10_15
*1018 FILLER_0_10_162
*1019 FILLER_0_10_166
*1020 FILLER_0_10_183
*1021 FILLER_0_10_187
*1022 FILLER_0_10_221
*1023 FILLER_0_10_232
*1024 FILLER_0_10_249
*1025 FILLER_0_10_27
*1026 FILLER_0_10_29
*1027 FILLER_0_10_3
*1028 FILLER_0_10_306
*1029 FILLER_0_10_312
*1030 FILLER_0_10_323
*1031 FILLER_0_10_66
*1032 FILLER_0_11_134
*1033 FILLER_0_11_15
*1034 FILLER_0_11_161
*1035 FILLER_0_11_167
*1036 FILLER_0_11_176
*1037 FILLER_0_11_184
*1038 FILLER_0_11_192
*1039 FILLER_0_11_208
*1040 FILLER_0_11_219
*1041 FILLER_0_11_223
*1042 FILLER_0_11_23
*1043 FILLER_0_11_239
*1044 FILLER_0_11_272
*1045 FILLER_0_11_281
*1046 FILLER_0_11_298
*1047 FILLER_0_11_3
*1048 FILLER_0_11_331
*1049 FILLER_0_11_71
*1050 FILLER_0_12_101
*1051 FILLER_0_12_113
*1052 FILLER_0_12_15
*1053 FILLER_0_12_166
*1054 FILLER_0_12_178
*1055 FILLER_0_12_186
*1056 FILLER_0_12_194
*1057 FILLER_0_12_197
*1058 FILLER_0_12_208
*1059 FILLER_0_12_227
*1060 FILLER_0_12_236
*1061 FILLER_0_12_240
*1062 FILLER_0_12_249
*1063 FILLER_0_12_265
*1064 FILLER_0_12_273
*1065 FILLER_0_12_29
*1066 FILLER_0_12_3
*1067 FILLER_0_12_307
*1068 FILLER_0_12_309
*1069 FILLER_0_12_317
*1070 FILLER_0_12_323
*1071 FILLER_0_12_75
*1072 FILLER_0_12_85
*1073 FILLER_0_12_97
*1074 FILLER_0_13_110
*1075 FILLER_0_13_138
*1076 FILLER_0_13_142
*1077 FILLER_0_13_15
*1078 FILLER_0_13_180
*1079 FILLER_0_13_207
*1080 FILLER_0_13_252
*1081 FILLER_0_13_259
*1082 FILLER_0_13_271
*1083 FILLER_0_13_278
*1084 FILLER_0_13_287
*1085 FILLER_0_13_295
*1086 FILLER_0_13_3
*1087 FILLER_0_13_302
*1088 FILLER_0_13_315
*1089 FILLER_0_13_327
*1090 FILLER_0_13_53
*1091 FILLER_0_13_57
*1092 FILLER_0_13_83
*1093 FILLER_0_14_122
*1094 FILLER_0_14_15
*1095 FILLER_0_14_19
*1096 FILLER_0_14_213
*1097 FILLER_0_14_249
*1098 FILLER_0_14_253
*1099 FILLER_0_14_29
*1100 FILLER_0_14_296
*1101 FILLER_0_14_3
*1102 FILLER_0_14_306
*1103 FILLER_0_14_328
*1104 FILLER_0_14_334
*1105 FILLER_0_14_79
*1106 FILLER_0_14_83
*1107 FILLER_0_15_102
*1108 FILLER_0_15_113
*1109 FILLER_0_15_122
*1110 FILLER_0_15_126
*1111 FILLER_0_15_148
*1112 FILLER_0_15_164
*1113 FILLER_0_15_180
*1114 FILLER_0_15_191
*1115 FILLER_0_15_203
*1116 FILLER_0_15_207
*1117 FILLER_0_15_225
*1118 FILLER_0_15_242
*1119 FILLER_0_15_278
*1120 FILLER_0_15_3
*1121 FILLER_0_15_326
*1122 FILLER_0_15_332
*1123 FILLER_0_15_47
*1124 FILLER_0_15_57
*1125 FILLER_0_15_88
*1126 FILLER_0_16_11
*1127 FILLER_0_16_117
*1128 FILLER_0_16_139
*1129 FILLER_0_16_141
*1130 FILLER_0_16_167
*1131 FILLER_0_16_179
*1132 FILLER_0_16_205
*1133 FILLER_0_16_247
*1134 FILLER_0_16_251
*1135 FILLER_0_16_279
*1136 FILLER_0_16_3
*1137 FILLER_0_16_300
*1138 FILLER_0_16_309
*1139 FILLER_0_16_320
*1140 FILLER_0_16_69
*1141 FILLER_0_16_82
*1142 FILLER_0_16_85
*1143 FILLER_0_17_108
*1144 FILLER_0_17_144
*1145 FILLER_0_17_150
*1146 FILLER_0_17_156
*1147 FILLER_0_17_169
*1148 FILLER_0_17_179
*1149 FILLER_0_17_191
*1150 FILLER_0_17_218
*1151 FILLER_0_17_245
*1152 FILLER_0_17_260
*1153 FILLER_0_17_289
*1154 FILLER_0_17_3
*1155 FILLER_0_17_300
*1156 FILLER_0_17_304
*1157 FILLER_0_17_319
*1158 FILLER_0_17_333
*1159 FILLER_0_17_38
*1160 FILLER_0_17_80
*1161 FILLER_0_17_84
*1162 FILLER_0_18_105
*1163 FILLER_0_18_112
*1164 FILLER_0_18_181
*1165 FILLER_0_18_213
*1166 FILLER_0_18_238
*1167 FILLER_0_18_262
*1168 FILLER_0_18_274
*1169 FILLER_0_18_286
*1170 FILLER_0_18_29
*1171 FILLER_0_18_294
*1172 FILLER_0_18_3
*1173 FILLER_0_18_322
*1174 FILLER_0_18_334
*1175 FILLER_0_18_39
*1176 FILLER_0_18_65
*1177 FILLER_0_18_85
*1178 FILLER_0_19_113
*1179 FILLER_0_19_143
*1180 FILLER_0_19_167
*1181 FILLER_0_19_169
*1182 FILLER_0_19_177
*1183 FILLER_0_19_219
*1184 FILLER_0_19_223
*1185 FILLER_0_19_225
*1186 FILLER_0_19_250
*1187 FILLER_0_19_256
*1188 FILLER_0_19_276
*1189 FILLER_0_19_281
*1190 FILLER_0_19_293
*1191 FILLER_0_19_299
*1192 FILLER_0_19_3
*1193 FILLER_0_19_307
*1194 FILLER_0_19_44
*1195 FILLER_0_19_53
*1196 FILLER_0_19_57
*1197 FILLER_0_19_82
*1198 FILLER_0_19_93
*1199 FILLER_0_1_105
*1200 FILLER_0_1_111
*1201 FILLER_0_1_113
*1202 FILLER_0_1_125
*1203 FILLER_0_1_137
*1204 FILLER_0_1_143
*1205 FILLER_0_1_15
*1206 FILLER_0_1_158
*1207 FILLER_0_1_166
*1208 FILLER_0_1_169
*1209 FILLER_0_1_181
*1210 FILLER_0_1_193
*1211 FILLER_0_1_205
*1212 FILLER_0_1_217
*1213 FILLER_0_1_223
*1214 FILLER_0_1_225
*1215 FILLER_0_1_237
*1216 FILLER_0_1_249
*1217 FILLER_0_1_261
*1218 FILLER_0_1_27
*1219 FILLER_0_1_273
*1220 FILLER_0_1_279
*1221 FILLER_0_1_281
*1222 FILLER_0_1_293
*1223 FILLER_0_1_3
*1224 FILLER_0_1_305
*1225 FILLER_0_1_317
*1226 FILLER_0_1_329
*1227 FILLER_0_1_39
*1228 FILLER_0_1_51
*1229 FILLER_0_1_55
*1230 FILLER_0_1_57
*1231 FILLER_0_1_69
*1232 FILLER_0_1_81
*1233 FILLER_0_1_93
*1234 FILLER_0_20_128
*1235 FILLER_0_20_141
*1236 FILLER_0_20_145
*1237 FILLER_0_20_183
*1238 FILLER_0_20_192
*1239 FILLER_0_20_205
*1240 FILLER_0_20_235
*1241 FILLER_0_20_287
*1242 FILLER_0_20_29
*1243 FILLER_0_20_3
*1244 FILLER_0_20_309
*1245 FILLER_0_20_327
*1246 FILLER_0_20_33
*1247 FILLER_0_20_50
*1248 FILLER_0_20_54
*1249 FILLER_0_20_79
*1250 FILLER_0_20_83
*1251 FILLER_0_20_85
*1252 FILLER_0_21_109
*1253 FILLER_0_21_113
*1254 FILLER_0_21_137
*1255 FILLER_0_21_167
*1256 FILLER_0_21_169
*1257 FILLER_0_21_205
*1258 FILLER_0_21_249
*1259 FILLER_0_21_284
*1260 FILLER_0_21_296
*1261 FILLER_0_21_320
*1262 FILLER_0_21_332
*1263 FILLER_0_21_57
*1264 FILLER_0_21_87
*1265 FILLER_0_22_119
*1266 FILLER_0_22_141
*1267 FILLER_0_22_190
*1268 FILLER_0_22_244
*1269 FILLER_0_22_250
*1270 FILLER_0_22_287
*1271 FILLER_0_22_3
*1272 FILLER_0_22_302
*1273 FILLER_0_22_309
*1274 FILLER_0_22_321
*1275 FILLER_0_22_333
*1276 FILLER_0_22_36
*1277 FILLER_0_22_40
*1278 FILLER_0_22_85
*1279 FILLER_0_22_89
*1280 FILLER_0_23_107
*1281 FILLER_0_23_111
*1282 FILLER_0_23_113
*1283 FILLER_0_23_125
*1284 FILLER_0_23_131
*1285 FILLER_0_23_154
*1286 FILLER_0_23_158
*1287 FILLER_0_23_167
*1288 FILLER_0_23_218
*1289 FILLER_0_23_236
*1290 FILLER_0_23_261
*1291 FILLER_0_23_276
*1292 FILLER_0_23_284
*1293 FILLER_0_23_29
*1294 FILLER_0_23_293
*1295 FILLER_0_23_3
*1296 FILLER_0_23_302
*1297 FILLER_0_23_322
*1298 FILLER_0_23_334
*1299 FILLER_0_23_57
*1300 FILLER_0_24_109
*1301 FILLER_0_24_11
*1302 FILLER_0_24_180
*1303 FILLER_0_24_225
*1304 FILLER_0_24_250
*1305 FILLER_0_24_269
*1306 FILLER_0_24_287
*1307 FILLER_0_24_29
*1308 FILLER_0_24_298
*1309 FILLER_0_24_3
*1310 FILLER_0_24_314
*1311 FILLER_0_24_331
*1312 FILLER_0_24_51
*1313 FILLER_0_24_65
*1314 FILLER_0_24_80
*1315 FILLER_0_24_85
*1316 FILLER_0_25_11
*1317 FILLER_0_25_111
*1318 FILLER_0_25_129
*1319 FILLER_0_25_135
*1320 FILLER_0_25_169
*1321 FILLER_0_25_202
*1322 FILLER_0_25_222
*1323 FILLER_0_25_232
*1324 FILLER_0_25_267
*1325 FILLER_0_25_273
*1326 FILLER_0_25_281
*1327 FILLER_0_25_299
*1328 FILLER_0_25_3
*1329 FILLER_0_25_323
*1330 FILLER_0_25_334
*1331 FILLER_0_25_37
*1332 FILLER_0_25_57
*1333 FILLER_0_25_77
*1334 FILLER_0_26_130
*1335 FILLER_0_26_138
*1336 FILLER_0_26_164
*1337 FILLER_0_26_192
*1338 FILLER_0_26_232
*1339 FILLER_0_26_250
*1340 FILLER_0_26_264
*1341 FILLER_0_26_29
*1342 FILLER_0_26_292
*1343 FILLER_0_26_3
*1344 FILLER_0_26_322
*1345 FILLER_0_26_334
*1346 FILLER_0_26_47
*1347 FILLER_0_26_56
*1348 FILLER_0_26_75
*1349 FILLER_0_27_103
*1350 FILLER_0_27_11
*1351 FILLER_0_27_111
*1352 FILLER_0_27_141
*1353 FILLER_0_27_161
*1354 FILLER_0_27_222
*1355 FILLER_0_27_249
*1356 FILLER_0_27_258
*1357 FILLER_0_27_264
*1358 FILLER_0_27_268
*1359 FILLER_0_27_290
*1360 FILLER_0_27_3
*1361 FILLER_0_27_329
*1362 FILLER_0_27_57
*1363 FILLER_0_27_79
*1364 FILLER_0_28_122
*1365 FILLER_0_28_139
*1366 FILLER_0_28_162
*1367 FILLER_0_28_170
*1368 FILLER_0_28_181
*1369 FILLER_0_28_193
*1370 FILLER_0_28_205
*1371 FILLER_0_28_213
*1372 FILLER_0_28_251
*1373 FILLER_0_28_266
*1374 FILLER_0_28_293
*1375 FILLER_0_28_3
*1376 FILLER_0_28_307
*1377 FILLER_0_28_33
*1378 FILLER_0_28_330
*1379 FILLER_0_28_334
*1380 FILLER_0_28_58
*1381 FILLER_0_28_70
*1382 FILLER_0_28_79
*1383 FILLER_0_28_83
*1384 FILLER_0_29_165
*1385 FILLER_0_29_169
*1386 FILLER_0_29_181
*1387 FILLER_0_29_193
*1388 FILLER_0_29_205
*1389 FILLER_0_29_239
*1390 FILLER_0_29_281
*1391 FILLER_0_29_3
*1392 FILLER_0_29_303
*1393 FILLER_0_29_307
*1394 FILLER_0_29_332
*1395 FILLER_0_29_40
*1396 FILLER_0_29_50
*1397 FILLER_0_29_57
*1398 FILLER_0_29_67
*1399 FILLER_0_29_79
*1400 FILLER_0_29_85
*1401 FILLER_0_29_98
*1402 FILLER_0_2_103
*1403 FILLER_0_2_112
*1404 FILLER_0_2_120
*1405 FILLER_0_2_132
*1406 FILLER_0_2_141
*1407 FILLER_0_2_145
*1408 FILLER_0_2_15
*1409 FILLER_0_2_162
*1410 FILLER_0_2_168
*1411 FILLER_0_2_176
*1412 FILLER_0_2_188
*1413 FILLER_0_2_197
*1414 FILLER_0_2_209
*1415 FILLER_0_2_221
*1416 FILLER_0_2_233
*1417 FILLER_0_2_245
*1418 FILLER_0_2_251
*1419 FILLER_0_2_253
*1420 FILLER_0_2_265
*1421 FILLER_0_2_27
*1422 FILLER_0_2_277
*1423 FILLER_0_2_289
*1424 FILLER_0_2_29
*1425 FILLER_0_2_3
*1426 FILLER_0_2_301
*1427 FILLER_0_2_307
*1428 FILLER_0_2_309
*1429 FILLER_0_2_321
*1430 FILLER_0_2_333
*1431 FILLER_0_2_41
*1432 FILLER_0_2_53
*1433 FILLER_0_2_65
*1434 FILLER_0_2_77
*1435 FILLER_0_2_83
*1436 FILLER_0_2_85
*1437 FILLER_0_2_97
*1438 FILLER_0_30_133
*1439 FILLER_0_30_144
*1440 FILLER_0_30_158
*1441 FILLER_0_30_166
*1442 FILLER_0_30_197
*1443 FILLER_0_30_209
*1444 FILLER_0_30_246
*1445 FILLER_0_30_29
*1446 FILLER_0_30_3
*1447 FILLER_0_30_301
*1448 FILLER_0_30_309
*1449 FILLER_0_30_328
*1450 FILLER_0_30_334
*1451 FILLER_0_30_48
*1452 FILLER_0_30_56
*1453 FILLER_0_30_81
*1454 FILLER_0_30_85
*1455 FILLER_0_31_111
*1456 FILLER_0_31_125
*1457 FILLER_0_31_156
*1458 FILLER_0_31_160
*1459 FILLER_0_31_169
*1460 FILLER_0_31_211
*1461 FILLER_0_31_223
*1462 FILLER_0_31_233
*1463 FILLER_0_31_245
*1464 FILLER_0_31_257
*1465 FILLER_0_31_269
*1466 FILLER_0_31_277
*1467 FILLER_0_31_281
*1468 FILLER_0_31_290
*1469 FILLER_0_31_3
*1470 FILLER_0_31_302
*1471 FILLER_0_31_314
*1472 FILLER_0_31_326
*1473 FILLER_0_31_334
*1474 FILLER_0_31_57
*1475 FILLER_0_31_85
*1476 FILLER_0_31_9
*1477 FILLER_0_32_113
*1478 FILLER_0_32_117
*1479 FILLER_0_32_131
*1480 FILLER_0_32_139
*1481 FILLER_0_32_141
*1482 FILLER_0_32_161
*1483 FILLER_0_32_186
*1484 FILLER_0_32_197
*1485 FILLER_0_32_218
*1486 FILLER_0_32_230
*1487 FILLER_0_32_242
*1488 FILLER_0_32_250
*1489 FILLER_0_32_253
*1490 FILLER_0_32_265
*1491 FILLER_0_32_27
*1492 FILLER_0_32_288
*1493 FILLER_0_32_3
*1494 FILLER_0_32_307
*1495 FILLER_0_32_309
*1496 FILLER_0_32_329
*1497 FILLER_0_32_35
*1498 FILLER_0_32_45
*1499 FILLER_0_32_79
*1500 FILLER_0_32_83
*1501 FILLER_0_32_85
*1502 FILLER_0_32_93
*1503 FILLER_0_33_110
*1504 FILLER_0_33_113
*1505 FILLER_0_33_124
*1506 FILLER_0_33_136
*1507 FILLER_0_33_149
*1508 FILLER_0_33_15
*1509 FILLER_0_33_161
*1510 FILLER_0_33_167
*1511 FILLER_0_33_169
*1512 FILLER_0_33_176
*1513 FILLER_0_33_180
*1514 FILLER_0_33_200
*1515 FILLER_0_33_221
*1516 FILLER_0_33_241
*1517 FILLER_0_33_27
*1518 FILLER_0_33_275
*1519 FILLER_0_33_279
*1520 FILLER_0_33_290
*1521 FILLER_0_33_298
*1522 FILLER_0_33_3
*1523 FILLER_0_33_333
*1524 FILLER_0_33_34
*1525 FILLER_0_33_46
*1526 FILLER_0_33_52
*1527 FILLER_0_33_57
*1528 FILLER_0_33_74
*1529 FILLER_0_33_86
*1530 FILLER_0_33_98
*1531 FILLER_0_34_101
*1532 FILLER_0_34_136
*1533 FILLER_0_34_15
*1534 FILLER_0_34_153
*1535 FILLER_0_34_165
*1536 FILLER_0_34_177
*1537 FILLER_0_34_195
*1538 FILLER_0_34_197
*1539 FILLER_0_34_209
*1540 FILLER_0_34_221
*1541 FILLER_0_34_253
*1542 FILLER_0_34_284
*1543 FILLER_0_34_296
*1544 FILLER_0_34_3
*1545 FILLER_0_34_302
*1546 FILLER_0_34_332
*1547 FILLER_0_34_50
*1548 FILLER_0_34_58
*1549 FILLER_0_34_64
*1550 FILLER_0_34_76
*1551 FILLER_0_34_93
*1552 FILLER_0_35_101
*1553 FILLER_0_35_110
*1554 FILLER_0_35_113
*1555 FILLER_0_35_121
*1556 FILLER_0_35_163
*1557 FILLER_0_35_167
*1558 FILLER_0_35_169
*1559 FILLER_0_35_173
*1560 FILLER_0_35_204
*1561 FILLER_0_35_216
*1562 FILLER_0_35_225
*1563 FILLER_0_35_231
*1564 FILLER_0_35_258
*1565 FILLER_0_35_288
*1566 FILLER_0_35_3
*1567 FILLER_0_35_300
*1568 FILLER_0_35_314
*1569 FILLER_0_35_331
*1570 FILLER_0_35_51
*1571 FILLER_0_35_55
*1572 FILLER_0_35_57
*1573 FILLER_0_35_69
*1574 FILLER_0_36_122
*1575 FILLER_0_36_141
*1576 FILLER_0_36_170
*1577 FILLER_0_36_176
*1578 FILLER_0_36_214
*1579 FILLER_0_36_220
*1580 FILLER_0_36_251
*1581 FILLER_0_36_253
*1582 FILLER_0_36_296
*1583 FILLER_0_36_3
*1584 FILLER_0_36_304
*1585 FILLER_0_36_333
*1586 FILLER_0_36_55
*1587 FILLER_0_36_80
*1588 FILLER_0_37_132
*1589 FILLER_0_37_140
*1590 FILLER_0_37_169
*1591 FILLER_0_37_181
*1592 FILLER_0_37_206
*1593 FILLER_0_37_218
*1594 FILLER_0_37_257
*1595 FILLER_0_37_289
*1596 FILLER_0_37_297
*1597 FILLER_0_37_3
*1598 FILLER_0_37_43
*1599 FILLER_0_37_55
*1600 FILLER_0_37_57
*1601 FILLER_0_37_87
*1602 FILLER_0_38_10
*1603 FILLER_0_38_122
*1604 FILLER_0_38_134
*1605 FILLER_0_38_14
*1606 FILLER_0_38_141
*1607 FILLER_0_38_153
*1608 FILLER_0_38_165
*1609 FILLER_0_38_169
*1610 FILLER_0_38_18
*1611 FILLER_0_38_181
*1612 FILLER_0_38_193
*1613 FILLER_0_38_214
*1614 FILLER_0_38_22
*1615 FILLER_0_38_222
*1616 FILLER_0_38_225
*1617 FILLER_0_38_237
*1618 FILLER_0_38_243
*1619 FILLER_0_38_251
*1620 FILLER_0_38_256
*1621 FILLER_0_38_264
*1622 FILLER_0_38_279
*1623 FILLER_0_38_281
*1624 FILLER_0_38_293
*1625 FILLER_0_38_32
*1626 FILLER_0_38_38
*1627 FILLER_0_38_42
*1628 FILLER_0_38_46
*1629 FILLER_0_38_57
*1630 FILLER_0_38_6
*1631 FILLER_0_38_85
*1632 FILLER_0_38_97
*1633 FILLER_0_3_113
*1634 FILLER_0_3_121
*1635 FILLER_0_3_125
*1636 FILLER_0_3_133
*1637 FILLER_0_3_15
*1638 FILLER_0_3_166
*1639 FILLER_0_3_169
*1640 FILLER_0_3_180
*1641 FILLER_0_3_192
*1642 FILLER_0_3_204
*1643 FILLER_0_3_216
*1644 FILLER_0_3_225