*SPEF "ieee 1481-1999"
*DESIGN "tt_um_silicon_tinytapeout_lm07"
*DATE "09:31:46 Wednesday April 17, 2024"
*VENDOR "The OpenROAD Project"
*PROGRAM "OpenROAD"
*VERSION "0889970d1790a2617e69f253221b8bd7626e51dc"
*DESIGN_FLOW "NAME_SCOPE LOCAL" "PIN_CAP NONE"
*DIVIDER /
*DELIMITER :
*BUS_DELIMITER []
*T_UNIT 1 NS
*C_UNIT 1 PF
*R_UNIT 1 OHM
*L_UNIT 1 HENRY

*NAME_MAP
*3 clk
*4 ena
*5 rst_n
*6 ui_in[0]
*7 ui_in[1]
*8 ui_in[2]
*9 ui_in[3]
*10 ui_in[4]
*11 ui_in[5]
*12 ui_in[6]
*13 ui_in[7]
*14 uio_in[0]
*15 uio_in[1]
*16 uio_in[2]
*17 uio_in[3]
*18 uio_in[4]
*19 uio_in[5]
*20 uio_in[6]
*21 uio_in[7]
*22 net16
*23 net17
*24 net9
*25 net18
*26 net19
*27 net20
*28 net10
*29 net11
*30 uio_out[0]
*31 uio_out[1]
*32 net12
*33 uio_out[3]
*34 uio_out[4]
*35 uio_out[5]
*36 net13
*37 net14
*38 uo_out[0]
*39 uo_out[1]
*40 uo_out[2]
*41 uo_out[3]
*42 uo_out[4]
*43 uo_out[5]
*44 uo_out[6]
*45 net15
*46 CS
*47 SCK
*48 _000_
*49 _001_
*50 _002_
*51 _003_
*52 _004_
*53 _005_
*54 _006_
*55 _007_
*56 _008_
*57 _009_
*58 _011_
*59 _012_
*60 _013_
*61 _014_
*62 _015_
*63 _016_
*64 _017_
*65 _018_
*66 _019_
*67 _020_
*68 _021_
*69 _022_
*70 _023_
*71 _024_
*72 _025_
*73 _026_
*74 _027_
*75 _028_
*76 _029_
*77 _030_
*78 _031_
*79 _032_
*80 _033_
*81 _034_
*82 _035_
*83 _036_
*84 _037_
*85 _038_
*86 _039_
*87 _040_
*88 _041_
*89 _042_
*90 _043_
*91 _044_
*92 _045_
*93 _046_
*94 _047_
*95 _048_
*96 _049_
*97 _050_
*98 _051_
*99 _052_
*100 _053_
*101 _054_
*102 _055_
*103 _056_
*104 _057_
*105 _058_
*106 _059_
*107 _060_
*108 _061_
*109 _062_
*110 _063_
*111 _064_
*112 _065_
*113 _066_
*114 _067_
*115 _068_
*116 _069_
*117 _070_
*118 _071_
*119 _072_
*120 _073_
*121 _074_
*122 _075_
*123 _076_
*124 _077_
*125 _078_
*126 _079_
*127 _080_
*128 _081_
*129 _082_
*130 _083_
*131 _084_
*132 _085_
*133 _086_
*134 _087_
*135 _088_
*136 _089_
*137 _090_
*138 _091_
*139 _092_
*140 _093_
*141 _094_
*142 _095_
*143 _096_
*144 _097_
*145 _098_
*146 _099_
*147 _100_
*148 _101_
*149 _102_
*150 _103_
*151 _104_
*152 _105_
*153 _106_
*154 _107_
*155 _108_
*156 _109_
*157 _110_
*158 _111_
*159 _112_
*160 _113_
*161 _114_
*162 _115_
*163 _116_
*164 _117_
*165 _118_
*166 _119_
*167 _120_
*168 _121_
*169 _122_
*170 _123_
*171 _124_
*172 _125_
*173 _126_
*174 _127_
*175 _128_
*176 _129_
*177 _130_
*178 _131_
*179 _132_
*180 _133_
*181 _134_
*182 _135_
*183 _136_
*184 _137_
*185 _138_
*186 _139_
*187 _140_
*188 clknet_0_clk
*189 clknet_1_0__leaf_clk
*190 clknet_1_1__leaf_clk
*191 count\[0\]
*192 count\[1\]
*193 count\[2\]
*194 count\[3\]
*195 count\[4\]
*196 dispState\[0\]
*197 dispState\[1\]
*198 dispState\[2\]
*199 net1
*200 net2
*201 net21
*202 net22
*203 net23
*204 net24
*205 net25
*206 net26
*207 net27
*208 net28
*209 net29
*210 net3
*211 net4
*212 net5
*213 net6
*214 net7
*215 net8
*216 shift_reg\[0\]
*217 shift_reg\[1\]
*218 shift_reg\[2\]
*219 shift_reg\[3\]
*220 shift_reg\[4\]
*221 shift_reg\[5\]
*222 shift_reg\[6\]
*223 spi_state\[2\]
*224 tempC_bin_latch\[1\]
*225 tempC_bin_latch\[2\]
*226 tempC_bin_latch\[3\]
*227 tempC_bin_latch\[4\]
*228 tempC_bin_latch\[5\]
*229 tempC_bin_latch\[6\]
*230 tempC_bin_latch\[7\]
*231 FILLER_0_0_109
*232 FILLER_0_0_113
*233 FILLER_0_0_125
*234 FILLER_0_0_137
*235 FILLER_0_0_141
*236 FILLER_0_0_15
*237 FILLER_0_0_153
*238 FILLER_0_0_165
*239 FILLER_0_0_169
*240 FILLER_0_0_181
*241 FILLER_0_0_193
*242 FILLER_0_0_197
*243 FILLER_0_0_209
*244 FILLER_0_0_221
*245 FILLER_0_0_225
*246 FILLER_0_0_237
*247 FILLER_0_0_249
*248 FILLER_0_0_253
*249 FILLER_0_0_265
*250 FILLER_0_0_27
*251 FILLER_0_0_277
*252 FILLER_0_0_281
*253 FILLER_0_0_29
*254 FILLER_0_0_293
*255 FILLER_0_0_3
*256 FILLER_0_0_305
*257 FILLER_0_0_309
*258 FILLER_0_0_321
*259 FILLER_0_0_333
*260 FILLER_0_0_41
*261 FILLER_0_0_53
*262 FILLER_0_0_57
*263 FILLER_0_0_69
*264 FILLER_0_0_81
*265 FILLER_0_0_85
*266 FILLER_0_0_97
*267 FILLER_0_10_109
*268 FILLER_0_10_121
*269 FILLER_0_10_133
*270 FILLER_0_10_139
*271 FILLER_0_10_141
*272 FILLER_0_10_15
*273 FILLER_0_10_153
*274 FILLER_0_10_165
*275 FILLER_0_10_177
*276 FILLER_0_10_189
*277 FILLER_0_10_195
*278 FILLER_0_10_197
*279 FILLER_0_10_209
*280 FILLER_0_10_221
*281 FILLER_0_10_233
*282 FILLER_0_10_245
*283 FILLER_0_10_251
*284 FILLER_0_10_253
*285 FILLER_0_10_265
*286 FILLER_0_10_27
*287 FILLER_0_10_277
*288 FILLER_0_10_289
*289 FILLER_0_10_29
*290 FILLER_0_10_3
*291 FILLER_0_10_301
*292 FILLER_0_10_307
*293 FILLER_0_10_309
*294 FILLER_0_10_321
*295 FILLER_0_10_333
*296 FILLER_0_10_41
*297 FILLER_0_10_53
*298 FILLER_0_10_65
*299 FILLER_0_10_77
*300 FILLER_0_10_83
*301 FILLER_0_10_85
*302 FILLER_0_10_97
*303 FILLER_0_11_105
*304 FILLER_0_11_111
*305 FILLER_0_11_113
*306 FILLER_0_11_125
*307 FILLER_0_11_137
*308 FILLER_0_11_149
*309 FILLER_0_11_15
*310 FILLER_0_11_161
*311 FILLER_0_11_167
*312 FILLER_0_11_169
*313 FILLER_0_11_181
*314 FILLER_0_11_193
*315 FILLER_0_11_205
*316 FILLER_0_11_217
*317 FILLER_0_11_223
*318 FILLER_0_11_225
*319 FILLER_0_11_237
*320 FILLER_0_11_249
*321 FILLER_0_11_261
*322 FILLER_0_11_27
*323 FILLER_0_11_273
*324 FILLER_0_11_279
*325 FILLER_0_11_281
*326 FILLER_0_11_293
*327 FILLER_0_11_3
*328 FILLER_0_11_305
*329 FILLER_0_11_317
*330 FILLER_0_11_329
*331 FILLER_0_11_39
*332 FILLER_0_11_51
*333 FILLER_0_11_55
*334 FILLER_0_11_57
*335 FILLER_0_11_69
*336 FILLER_0_11_81
*337 FILLER_0_11_93
*338 FILLER_0_12_109
*339 FILLER_0_12_121
*340 FILLER_0_12_133
*341 FILLER_0_12_139
*342 FILLER_0_12_141
*343 FILLER_0_12_15
*344 FILLER_0_12_153
*345 FILLER_0_12_165
*346 FILLER_0_12_177
*347 FILLER_0_12_189
*348 FILLER_0_12_195
*349 FILLER_0_12_197
*350 FILLER_0_12_209
*351 FILLER_0_12_221
*352 FILLER_0_12_233
*353 FILLER_0_12_245
*354 FILLER_0_12_251
*355 FILLER_0_12_253
*356 FILLER_0_12_265
*357 FILLER_0_12_27
*358 FILLER_0_12_277
*359 FILLER_0_12_289
*360 FILLER_0_12_29
*361 FILLER_0_12_3
*362 FILLER_0_12_301
*363 FILLER_0_12_307
*364 FILLER_0_12_309
*365 FILLER_0_12_321
*366 FILLER_0_12_333
*367 FILLER_0_12_41
*368 FILLER_0_12_53
*369 FILLER_0_12_65
*370 FILLER_0_12_77
*371 FILLER_0_12_83
*372 FILLER_0_12_85
*373 FILLER_0_12_97
*374 FILLER_0_13_105
*375 FILLER_0_13_111
*376 FILLER_0_13_113
*377 FILLER_0_13_125
*378 FILLER_0_13_137
*379 FILLER_0_13_149
*380 FILLER_0_13_15
*381 FILLER_0_13_161
*382 FILLER_0_13_167
*383 FILLER_0_13_169
*384 FILLER_0_13_181
*385 FILLER_0_13_193
*386 FILLER_0_13_205
*387 FILLER_0_13_217
*388 FILLER_0_13_223
*389 FILLER_0_13_225
*390 FILLER_0_13_237
*391 FILLER_0_13_249
*392 FILLER_0_13_261
*393 FILLER_0_13_27
*394 FILLER_0_13_273
*395 FILLER_0_13_279
*396 FILLER_0_13_281
*397 FILLER_0_13_293
*398 FILLER_0_13_3
*399 FILLER_0_13_305
*400 FILLER_0_13_317
*401 FILLER_0_13_329
*402 FILLER_0_13_39
*403 FILLER_0_13_51
*404 FILLER_0_13_55
*405 FILLER_0_13_57
*406 FILLER_0_13_69
*407 FILLER_0_13_81
*408 FILLER_0_13_93
*409 FILLER_0_14_109
*410 FILLER_0_14_121
*411 FILLER_0_14_133
*412 FILLER_0_14_139
*413 FILLER_0_14_141
*414 FILLER_0_14_15
*415 FILLER_0_14_153
*416 FILLER_0_14_165
*417 FILLER_0_14_177
*418 FILLER_0_14_189
*419 FILLER_0_14_195
*420 FILLER_0_14_197
*421 FILLER_0_14_209
*422 FILLER_0_14_221
*423 FILLER_0_14_233
*424 FILLER_0_14_245
*425 FILLER_0_14_251
*426 FILLER_0_14_253
*427 FILLER_0_14_265
*428 FILLER_0_14_27
*429 FILLER_0_14_277
*430 FILLER_0_14_289
*431 FILLER_0_14_29
*432 FILLER_0_14_3
*433 FILLER_0_14_301
*434 FILLER_0_14_307
*435 FILLER_0_14_309
*436 FILLER_0_14_321
*437 FILLER_0_14_333
*438 FILLER_0_14_41
*439 FILLER_0_14_53
*440 FILLER_0_14_65
*441 FILLER_0_14_77
*442 FILLER_0_14_83
*443 FILLER_0_14_85
*444 FILLER_0_14_97
*445 FILLER_0_15_105
*446 FILLER_0_15_111
*447 FILLER_0_15_113
*448 FILLER_0_15_125
*449 FILLER_0_15_137
*450 FILLER_0_15_149
*451 FILLER_0_15_15
*452 FILLER_0_15_161
*453 FILLER_0_15_167
*454 FILLER_0_15_169
*455 FILLER_0_15_181
*456 FILLER_0_15_193
*457 FILLER_0_15_205
*458 FILLER_0_15_217
*459 FILLER_0_15_223
*460 FILLER_0_15_225
*461 FILLER_0_15_237
*462 FILLER_0_15_249
*463 FILLER_0_15_261
*464 FILLER_0_15_27
*465 FILLER_0_15_273
*466 FILLER_0_15_279
*467 FILLER_0_15_281
*468 FILLER_0_15_293
*469 FILLER_0_15_3
*470 FILLER_0_15_305
*471 FILLER_0_15_317
*472 FILLER_0_15_329
*473 FILLER_0_15_39
*474 FILLER_0_15_51
*475 FILLER_0_15_55
*476 FILLER_0_15_57
*477 FILLER_0_15_69
*478 FILLER_0_15_81
*479 FILLER_0_15_93
*480 FILLER_0_16_109
*481 FILLER_0_16_121
*482 FILLER_0_16_133
*483 FILLER_0_16_139
*484 FILLER_0_16_141
*485 FILLER_0_16_15
*486 FILLER_0_16_153
*487 FILLER_0_16_165
*488 FILLER_0_16_177
*489 FILLER_0_16_189
*490 FILLER_0_16_195
*491 FILLER_0_16_197
*492 FILLER_0_16_209
*493 FILLER_0_16_221
*494 FILLER_0_16_233
*495 FILLER_0_16_245
*496 FILLER_0_16_251
*497 FILLER_0_16_253
*498 FILLER_0_16_265
*499 FILLER_0_16_27
*500 FILLER_0_16_277
*501 FILLER_0_16_289
*502 FILLER_0_16_29
*503 FILLER_0_16_3
*504 FILLER_0_16_301
*505 FILLER_0_16_307
*506 FILLER_0_16_309
*507 FILLER_0_16_321
*508 FILLER_0_16_333
*509 FILLER_0_16_41
*510 FILLER_0_16_53
*511 FILLER_0_16_65
*512 FILLER_0_16_77
*513 FILLER_0_16_83
*514 FILLER_0_16_85
*515 FILLER_0_16_97
*516 FILLER_0_17_105
*517 FILLER_0_17_111
*518 FILLER_0_17_113
*519 FILLER_0_17_125
*520 FILLER_0_17_137
*521 FILLER_0_17_149
*522 FILLER_0_17_15
*523 FILLER_0_17_161
*524 FILLER_0_17_167
*525 FILLER_0_17_169
*526 FILLER_0_17_181
*527 FILLER_0_17_193
*528 FILLER_0_17_205
*529 FILLER_0_17_217
*530 FILLER_0_17_223
*531 FILLER_0_17_225
*532 FILLER_0_17_237
*533 FILLER_0_17_249
*534 FILLER_0_17_261
*535 FILLER_0_17_27
*536 FILLER_0_17_273
*537 FILLER_0_17_279
*538 FILLER_0_17_281
*539 FILLER_0_17_293
*540 FILLER_0_17_3
*541 FILLER_0_17_305
*542 FILLER_0_17_317
*543 FILLER_0_17_329
*544 FILLER_0_17_39
*545 FILLER_0_17_51
*546 FILLER_0_17_55
*547 FILLER_0_17_57
*548 FILLER_0_17_69
*549 FILLER_0_17_81
*550 FILLER_0_17_93
*551 FILLER_0_18_109
*552 FILLER_0_18_121
*553 FILLER_0_18_133
*554 FILLER_0_18_139
*555 FILLER_0_18_141
*556 FILLER_0_18_15
*557 FILLER_0_18_153
*558 FILLER_0_18_165
*559 FILLER_0_18_177
*560 FILLER_0_18_189
*561 FILLER_0_18_195
*562 FILLER_0_18_197
*563 FILLER_0_18_209
*564 FILLER_0_18_221
*565 FILLER_0_18_233
*566 FILLER_0_18_245
*567 FILLER_0_18_251
*568 FILLER_0_18_253
*569 FILLER_0_18_265
*570 FILLER_0_18_27
*571 FILLER_0_18_277
*572 FILLER_0_18_289
*573 FILLER_0_18_29
*574 FILLER_0_18_3
*575 FILLER_0_18_301
*576 FILLER_0_18_307
*577 FILLER_0_18_309
*578 FILLER_0_18_321
*579 FILLER_0_18_333
*580 FILLER_0_18_41
*581 FILLER_0_18_53
*582 FILLER_0_18_65
*583 FILLER_0_18_77
*584 FILLER_0_18_83
*585 FILLER_0_18_85
*586 FILLER_0_18_97
*587 FILLER_0_19_105
*588 FILLER_0_19_111
*589 FILLER_0_19_113
*590 FILLER_0_19_125
*591 FILLER_0_19_137
*592 FILLER_0_19_149
*593 FILLER_0_19_15
*594 FILLER_0_19_161
*595 FILLER_0_19_167
*596 FILLER_0_19_169
*597 FILLER_0_19_181
*598 FILLER_0_19_193
*599 FILLER_0_19_205
*600 FILLER_0_19_217
*601 FILLER_0_19_223
*602 FILLER_0_19_225
*603 FILLER_0_19_237
*604 FILLER_0_19_249
*605 FILLER_0_19_261
*606 FILLER_0_19_27
*607 FILLER_0_19_273
*608 FILLER_0_19_279
*609 FILLER_0_19_281
*610 FILLER_0_19_293
*611 FILLER_0_19_3
*612 FILLER_0_19_305
*613 FILLER_0_19_317
*614 FILLER_0_19_329
*615 FILLER_0_19_39
*616 FILLER_0_19_51
*617 FILLER_0_19_55
*618 FILLER_0_19_57
*619 FILLER_0_19_69
*620 FILLER_0_19_81
*621 FILLER_0_19_93
*622 FILLER_0_1_105
*623 FILLER_0_1_111
*624 FILLER_0_1_113
*625 FILLER_0_1_125
*626 FILLER_0_1_137
*627 FILLER_0_1_149
*628 FILLER_0_1_15
*629 FILLER_0_1_161
*630 FILLER_0_1_167
*631 FILLER_0_1_169
*632 FILLER_0_1_181
*633 FILLER_0_1_193
*634 FILLER_0_1_205
*635 FILLER_0_1_217
*636 FILLER_0_1_223
*637 FILLER_0_1_225
*638 FILLER_0_1_237
*639 FILLER_0_1_249
*640 FILLER_0_1_261
*641 FILLER_0_1_27
*642 FILLER_0_1_273
*643 FILLER_0_1_279
*644 FILLER_0_1_281
*645 FILLER_0_1_293
*646 FILLER_0_1_3
*647 FILLER_0_1_305
*648 FILLER_0_1_317
*649 FILLER_0_1_329
*650 FILLER_0_1_39
*651 FILLER_0_1_51
*652 FILLER_0_1_55
*653 FILLER_0_1_57
*654 FILLER_0_1_69
*655 FILLER_0_1_81
*656 FILLER_0_1_93
*657 FILLER_0_20_109
*658 FILLER_0_20_121
*659 FILLER_0_20_133
*660 FILLER_0_20_139
*661 FILLER_0_20_141
*662 FILLER_0_20_15
*663 FILLER_0_20_153
*664 FILLER_0_20_165
*665 FILLER_0_20_177
*666 FILLER_0_20_189
*667 FILLER_0_20_195
*668 FILLER_0_20_197
*669 FILLER_0_20_209
*670 FILLER_0_20_221
*671 FILLER_0_20_233
*672 FILLER_0_20_245
*673 FILLER_0_20_251
*674 FILLER_0_20_253
*675 FILLER_0_20_265
*676 FILLER_0_20_27
*677 FILLER_0_20_277
*678 FILLER_0_20_289
*679 FILLER_0_20_29
*680 FILLER_0_20_3
*681 FILLER_0_20_301
*682 FILLER_0_20_307
*683 FILLER_0_20_309
*684 FILLER_0_20_321
*685 FILLER_0_20_333
*686 FILLER_0_20_41
*687 FILLER_0_20_53
*688 FILLER_0_20_65
*689 FILLER_0_20_77
*690 FILLER_0_20_83
*691 FILLER_0_20_85
*692 FILLER_0_20_97
*693 FILLER_0_21_105
*694 FILLER_0_21_111
*695 FILLER_0_21_113
*696 FILLER_0_21_125
*697 FILLER_0_21_137
*698 FILLER_0_21_149
*699 FILLER_0_21_15
*700 FILLER_0_21_161
*701 FILLER_0_21_167
*702 FILLER_0_21_169
*703 FILLER_0_21_181
*704 FILLER_0_21_193
*705 FILLER_0_21_205
*706 FILLER_0_21_217
*707 FILLER_0_21_223
*708 FILLER_0_21_225
*709 FILLER_0_21_237
*710 FILLER_0_21_249
*711 FILLER_0_21_261
*712 FILLER_0_21_27
*713 FILLER_0_21_273
*714 FILLER_0_21_279
*715 FILLER_0_21_281
*716 FILLER_0_21_293
*717 FILLER_0_21_3
*718 FILLER_0_21_305
*719 FILLER_0_21_317
*720 FILLER_0_21_329
*721 FILLER_0_21_39
*722 FILLER_0_21_51
*723 FILLER_0_21_55
*724 FILLER_0_21_57
*725 FILLER_0_21_69
*726 FILLER_0_21_81
*727 FILLER_0_21_93
*728 FILLER_0_22_109
*729 FILLER_0_22_121
*730 FILLER_0_22_133
*731 FILLER_0_22_139
*732 FILLER_0_22_141
*733 FILLER_0_22_15
*734 FILLER_0_22_153
*735 FILLER_0_22_165
*736 FILLER_0_22_177
*737 FILLER_0_22_189
*738 FILLER_0_22_195
*739 FILLER_0_22_197
*740 FILLER_0_22_209
*741 FILLER_0_22_221
*742 FILLER_0_22_233
*743 FILLER_0_22_245
*744 FILLER_0_22_251
*745 FILLER_0_22_253
*746 FILLER_0_22_265
*747 FILLER_0_22_27
*748 FILLER_0_22_277
*749 FILLER_0_22_289
*750 FILLER_0_22_29
*751 FILLER_0_22_3
*752 FILLER_0_22_301
*753 FILLER_0_22_307
*754 FILLER_0_22_309
*755 FILLER_0_22_321
*756 FILLER_0_22_333
*757 FILLER_0_22_41
*758 FILLER_0_22_53
*759 FILLER_0_22_65
*760 FILLER_0_22_77
*761 FILLER_0_22_83
*762 FILLER_0_22_85
*763 FILLER_0_22_97
*764 FILLER_0_23_105
*765 FILLER_0_23_111
*766 FILLER_0_23_113
*767 FILLER_0_23_125
*768 FILLER_0_23_137
*769 FILLER_0_23_149
*770 FILLER_0_23_15
*771 FILLER_0_23_161
*772 FILLER_0_23_167
*773 FILLER_0_23_169
*774 FILLER_0_23_181
*775 FILLER_0_23_193
*776 FILLER_0_23_205
*777 FILLER_0_23_217
*778 FILLER_0_23_223
*779 FILLER_0_23_225
*780 FILLER_0_23_237
*781 FILLER_0_23_249
*782 FILLER_0_23_261
*783 FILLER_0_23_27
*784 FILLER_0_23_273
*785 FILLER_0_23_279
*786 FILLER_0_23_281
*787 FILLER_0_23_293
*788 FILLER_0_23_3
*789 FILLER_0_23_305
*790 FILLER_0_23_317
*791 FILLER_0_23_329
*792 FILLER_0_23_39
*793 FILLER_0_23_51
*794 FILLER_0_23_55
*795 FILLER_0_23_57
*796 FILLER_0_23_69
*797 FILLER_0_23_81
*798 FILLER_0_23_93
*799 FILLER_0_24_109
*800 FILLER_0_24_121
*801 FILLER_0_24_133
*802 FILLER_0_24_139
*803 FILLER_0_24_141
*804 FILLER_0_24_15
*805 FILLER_0_24_153
*806 FILLER_0_24_165
*807 FILLER_0_24_177
*808 FILLER_0_24_189
*809 FILLER_0_24_195
*810 FILLER_0_24_197
*811 FILLER_0_24_209
*812 FILLER_0_24_221
*813 FILLER_0_24_233
*814 FILLER_0_24_245
*815 FILLER_0_24_251
*816 FILLER_0_24_253
*817 FILLER_0_24_265
*818 FILLER_0_24_27
*819 FILLER_0_24_277
*820 FILLER_0_24_289
*821 FILLER_0_24_29
*822 FILLER_0_24_3
*823 FILLER_0_24_301
*824 FILLER_0_24_307
*825 FILLER_0_24_309
*826 FILLER_0_24_321
*827 FILLER_0_24_333
*828 FILLER_0_24_41
*829 FILLER_0_24_53
*830 FILLER_0_24_65
*831 FILLER_0_24_77
*832 FILLER_0_24_83
*833 FILLER_0_24_85
*834 FILLER_0_24_97
*835 FILLER_0_25_105
*836 FILLER_0_25_111
*837 FILLER_0_25_113
*838 FILLER_0_25_125
*839 FILLER_0_25_137
*840 FILLER_0_25_149
*841 FILLER_0_25_15
*842 FILLER_0_25_161
*843 FILLER_0_25_167
*844 FILLER_0_25_169
*845 FILLER_0_25_181
*846 FILLER_0_25_193
*847 FILLER_0_25_205
*848 FILLER_0_25_217
*849 FILLER_0_25_223
*850 FILLER_0_25_225
*851 FILLER_0_25_237
*852 FILLER_0_25_249
*853 FILLER_0_25_261
*854 FILLER_0_25_27
*855 FILLER_0_25_273
*856 FILLER_0_25_279
*857 FILLER_0_25_281
*858 FILLER_0_25_293
*859 FILLER_0_25_3
*860 FILLER_0_25_305
*861 FILLER_0_25_317
*862 FILLER_0_25_329
*863 FILLER_0_25_39
*864 FILLER_0_25_51
*865 FILLER_0_25_55
*866 FILLER_0_25_57
*867 FILLER_0_25_69
*868 FILLER_0_25_81
*869 FILLER_0_25_93
*870 FILLER_0_26_109
*871 FILLER_0_26_121
*872 FILLER_0_26_133
*873 FILLER_0_26_139
*874 FILLER_0_26_141
*875 FILLER_0_26_15
*876 FILLER_0_26_153
*877 FILLER_0_26_165
*878 FILLER_0_26_177
*879 FILLER_0_26_189
*880 FILLER_0_26_195
*881 FILLER_0_26_197
*882 FILLER_0_26_209
*883 FILLER_0_26_221
*884 FILLER_0_26_233
*885 FILLER_0_26_245
*886 FILLER_0_26_251
*887 FILLER_0_26_253
*888 FILLER_0_26_265
*889 FILLER_0_26_27
*890 FILLER_0_26_277
*891 FILLER_0_26_289
*892 FILLER_0_26_29
*893 FILLER_0_26_3
*894 FILLER_0_26_301
*895 FILLER_0_26_307
*896 FILLER_0_26_309
*897 FILLER_0_26_321
*898 FILLER_0_26_333
*899 FILLER_0_26_41
*900 FILLER_0_26_53
*901 FILLER_0_26_65
*902 FILLER_0_26_77
*903 FILLER_0_26_83
*904 FILLER_0_26_85
*905 FILLER_0_26_97
*906 FILLER_0_27_105
*907 FILLER_0_27_111
*908 FILLER_0_27_113
*909 FILLER_0_27_125
*910 FILLER_0_27_137
*911 FILLER_0_27_149
*912 FILLER_0_27_15
*913 FILLER_0_27_161
*914 FILLER_0_27_167
*915 FILLER_0_27_169
*916 FILLER_0_27_181
*917 FILLER_0_27_193
*918 FILLER_0_27_205
*919 FILLER_0_27_217
*920 FILLER_0_27_223
*921 FILLER_0_27_225
*922 FILLER_0_27_237
*923 FILLER_0_27_249
*924 FILLER_0_27_261
*925 FILLER_0_27_27
*926 FILLER_0_27_273
*927 FILLER_0_27_279
*928 FILLER_0_27_284
*929 FILLER_0_27_296
*930 FILLER_0_27_3
*931 FILLER_0_27_308
*932 FILLER_0_27_320
*933 FILLER_0_27_332
*934 FILLER_0_27_39
*935 FILLER_0_27_51
*936 FILLER_0_27_55
*937 FILLER_0_27_57
*938 FILLER_0_27_69
*939 FILLER_0_27_81
*940 FILLER_0_27_93
*941 FILLER_0_28_103
*942 FILLER_0_28_133
*943 FILLER_0_28_139
*944 FILLER_0_28_141
*945 FILLER_0_28_15
*946 FILLER_0_28_153
*947 FILLER_0_28_165
*948 FILLER_0_28_177
*949 FILLER_0_28_189
*950 FILLER_0_28_195
*951 FILLER_0_28_197
*952 FILLER_0_28_209
*953 FILLER_0_28_253
*954 FILLER_0_28_27
*955 FILLER_0_28_280
*956 FILLER_0_28_29
*957 FILLER_0_28_3
*958 FILLER_0_28_302
*959 FILLER_0_28_309
*960 FILLER_0_28_321
*961 FILLER_0_28_333
*962 FILLER_0_28_41
*963 FILLER_0_28_53
*964 FILLER_0_28_65
*965 FILLER_0_28_77
*966 FILLER_0_28_83
*967 FILLER_0_28_91
*968 FILLER_0_29_105
*969 FILLER_0_29_127
*970 FILLER_0_29_131
*971 FILLER_0_29_15
*972 FILLER_0_29_152
*973 FILLER_0_29_164
*974 FILLER_0_29_169
*975 FILLER_0_29_181
*976 FILLER_0_29_193
*977 FILLER_0_29_205
*978 FILLER_0_29_220
*979 FILLER_0_29_225
*980 FILLER_0_29_27
*981 FILLER_0_29_278
*982 FILLER_0_29_3
*983 FILLER_0_29_321
*984 FILLER_0_29_333
*985 FILLER_0_29_39
*986 FILLER_0_29_51
*987 FILLER_0_29_55
*988 FILLER_0_29_57
*989 FILLER_0_29_69
*990 FILLER_0_2_109
*991 FILLER_0_2_121
*992 FILLER_0_2_133
*993 FILLER_0_2_139
*994 FILLER_0_2_141
*995 FILLER_0_2_15
*996 FILLER_0_2_153
*997 FILLER_0_2_165
*998 FILLER_0_2_177
*999 FILLER_0_2_189
*1000 FILLER_0_2_195
*1001 FILLER_0_2_197
*1002 FILLER_0_2_209
*1003 FILLER_0_2_221
*1004 FILLER_0_2_233
*1005 FILLER_0_2_245
*1006 FILLER_0_2_251
*1007 FILLER_0_2_253
*1008 FILLER_0_2_265
*1009 FILLER_0_2_27
*1010 FILLER_0_2_277
*1011 FILLER_0_2_289
*1012 FILLER_0_2_29
*1013 FILLER_0_2_3
*1014 FILLER_0_2_301
*1015 FILLER_0_2_307
*1016 FILLER_0_2_309
*1017 FILLER_0_2_321
*1018 FILLER_0_2_333
*1019 FILLER_0_2_41
*1020 FILLER_0_2_53
*1021 FILLER_0_2_65
*1022 FILLER_0_2_77
*1023 FILLER_0_2_83
*1024 FILLER_0_2_85
*1025 FILLER_0_2_97
*1026 FILLER_0_30_141
*1027 FILLER_0_30_15
*1028 FILLER_0_30_153
*1029 FILLER_0_30_165
*1030 FILLER_0_30_177
*1031 FILLER_0_30_184
*1032 FILLER_0_30_195
*1033 FILLER_0_30_237
*1034 FILLER_0_30_249
*1035 FILLER_0_30_253
*1036 FILLER_0_30_27
*1037 FILLER_0_30_289
*1038 FILLER_0_30_29
*1039 FILLER_0_30_297
*1040 FILLER_0_30_3
*1041 FILLER_0_30_329
*1042 FILLER_0_30_41
*1043 FILLER_0_30_53
*1044 FILLER_0_30_65
*1045 FILLER_0_30_77
*1046 FILLER_0_30_83
*1047 FILLER_0_30_89
*1048 FILLER_0_30_94
*1049 FILLER_0_31_109
*1050 FILLER_0_31_113
*1051 FILLER_0_31_118
*1052 FILLER_0_31_124
*1053 FILLER_0_31_145
*1054 FILLER_0_31_15
*1055 FILLER_0_31_157
*1056 FILLER_0_31_165
*1057 FILLER_0_31_169
*1058 FILLER_0_31_175
*1059 FILLER_0_31_220
*1060 FILLER_0_31_225
*1061 FILLER_0_31_234
*1062 FILLER_0_31_242
*1063 FILLER_0_31_27
*1064 FILLER_0_31_272
*1065 FILLER_0_31_281
*1066 FILLER_0_31_293
*1067 FILLER_0_31_3
*1068 FILLER_0_31_301
*1069 FILLER_0_31_332
*1070 FILLER_0_31_39
*1071 FILLER_0_31_51
*1072 FILLER_0_31_55
*1073 FILLER_0_31_57
*1074 FILLER_0_31_69
*1075 FILLER_0_32_114
*1076 FILLER_0_32_124
*1077 FILLER_0_32_136
*1078 FILLER_0_32_141
*1079 FILLER_0_32_15
*1080 FILLER_0_32_153
*1081 FILLER_0_32_165
*1082 FILLER_0_32_177
*1083 FILLER_0_32_189
*1084 FILLER_0_32_195
*1085 FILLER_0_32_197
*1086 FILLER_0_32_205
*1087 FILLER_0_32_213
*1088 FILLER_0_32_222
*1089 FILLER_0_32_228
*1090 FILLER_0_32_232
*1091 FILLER_0_32_240
*1092 FILLER_0_32_27
*1093 FILLER_0_32_271
*1094 FILLER_0_32_279
*1095 FILLER_0_32_286
*1096 FILLER_0_32_29
*1097 FILLER_0_32_297
*1098 FILLER_0_32_3
*1099 FILLER_0_32_309
*1100 FILLER_0_32_322
*1101 FILLER_0_32_41
*1102 FILLER_0_32_53
*1103 FILLER_0_32_65
*1104 FILLER_0_32_77
*1105 FILLER_0_32_83
*1106 FILLER_0_32_85
*1107 FILLER_0_32_97
*1108 FILLER_0_33_105
*1109 FILLER_0_33_111
*1110 FILLER_0_33_133
*1111 FILLER_0_33_145
*1112 FILLER_0_33_15
*1113 FILLER_0_33_167
*1114 FILLER_0_33_169
*1115 FILLER_0_33_176
*1116 FILLER_0_33_188
*1117 FILLER_0_33_200
*1118 FILLER_0_33_231
*1119 FILLER_0_33_237
*1120 FILLER_0_33_249
*1121 FILLER_0_33_258
*1122 FILLER_0_33_268
*1123 FILLER_0_33_27
*1124 FILLER_0_33_275
*1125 FILLER_0_33_281
*1126 FILLER_0_33_289
*1127 FILLER_0_33_3
*1128 FILLER_0_33_302
*1129 FILLER_0_33_312
*1130 FILLER_0_33_324
*1131 FILLER_0_33_331
*1132 FILLER_0_33_39
*1133 FILLER_0_33_51
*1134 FILLER_0_33_55
*1135 FILLER_0_33_57
*1136 FILLER_0_33_69
*1137 FILLER_0_33_81
*1138 FILLER_0_33_93
*1139 FILLER_0_34_106
*1140 FILLER_0_34_147
*1141 FILLER_0_34_15
*1142 FILLER_0_34_153
*1143 FILLER_0_34_188
*1144 FILLER_0_34_204
*1145 FILLER_0_34_211
*1146 FILLER_0_34_232
*1147 FILLER_0_34_253
*1148 FILLER_0_34_27
*1149 FILLER_0_34_29
*1150 FILLER_0_34_291
*1151 FILLER_0_34_3
*1152 FILLER_0_34_303
*1153 FILLER_0_34_307
*1154 FILLER_0_34_309
*1155 FILLER_0_34_321
*1156 FILLER_0_34_333
*1157 FILLER_0_34_41
*1158 FILLER_0_34_53
*1159 FILLER_0_34_65
*1160 FILLER_0_34_77
*1161 FILLER_0_34_83
*1162 FILLER_0_35_113
*1163 FILLER_0_35_121
*1164 FILLER_0_35_128
*1165 FILLER_0_35_138
*1166 FILLER_0_35_142
*1167 FILLER_0_35_15
*1168 FILLER_0_35_165
*1169 FILLER_0_35_193
*1170 FILLER_0_35_204
*1171 FILLER_0_35_212
*1172 FILLER_0_35_225
*1173 FILLER_0_35_253
*1174 FILLER_0_35_261
*1175 FILLER_0_35_27
*1176 FILLER_0_35_274
*1177 FILLER_0_35_3
*1178 FILLER_0_35_304
*1179 FILLER_0_35_316
*1180 FILLER_0_35_328
*1181 FILLER_0_35_334
*1182 FILLER_0_35_39
*1183 FILLER_0_35_51
*1184 FILLER_0_35_55
*1185 FILLER_0_35_57
*1186 FILLER_0_35_69
*1187 FILLER_0_35_81
*1188 FILLER_0_36_110
*1189 FILLER_0_36_118
*1190 FILLER_0_36_126
*1191 FILLER_0_36_133
*1192 FILLER_0_36_139
*1193 FILLER_0_36_15
*1194 FILLER_0_36_195
*1195 FILLER_0_36_200
*1196 FILLER_0_36_241
*1197 FILLER_0_36_249
*1198 FILLER_0_36_260
*1199 FILLER_0_36_27
*1200 FILLER_0_36_272
*1201 FILLER_0_36_29
*1202 FILLER_0_36_3
*1203 FILLER_0_36_309
*1204 FILLER_0_36_321
*1205 FILLER_0_36_333
*1206 FILLER_0_36_41
*1207 FILLER_0_36_53
*1208 FILLER_0_36_65
*1209 FILLER_0_36_77
*1210 FILLER_0_36_83
*1211 FILLER_0_36_91
*1212 FILLER_0_37_110
*1213 FILLER_0_37_124
*1214 FILLER_0_37_138
*1215 FILLER_0_37_15
*1216 FILLER_0_37_162
*1217 FILLER_0_37_176
*1218 FILLER_0_37_197
*1219 FILLER_0_37_205
*1220 FILLER_0_37_222
*1221 FILLER_0_37_225
*1222 FILLER_0_37_234
*1223 FILLER_0_37_27
*1224 FILLER_0_37_272
*1225 FILLER_0_37_3
*1226 FILLER_0_37_303
*1227 FILLER_0_37_315
*1228 FILLER_0_37_327
*1229 FILLER_0_37_39
*1230 FILLER_0_37_51
*1231 FILLER_0_37_55
*1232 FILLER_0_37_57
*1233 FILLER_0_37_69
*1234 FILLER_0_37_81
*1235 FILLER_0_38_10
*1236 FILLER_0_38_116
*1237 FILLER_0_38_123
*1238 FILLER_0_38_135
*1239 FILLER_0_38_139
*1240 FILLER_0_38_14
*1241 FILLER_0_38_141
*1242 FILLER_0_38_145
*1243 FILLER_0_38_150
*1244 FILLER_0_38_155
*1245 FILLER_0_38_167
*1246 FILLER_0_38_169
*1247 FILLER_0_38_18
*1248 FILLER_0_38_182
*1249 FILLER_0_38_194
*1250 FILLER_0_38_197
*1251 FILLER_0_38_205
*1252 FILLER_0_38_218
*1253 FILLER_0_38_22
*1254 FILLER_0_38_225
*1255 FILLER_0_38_233
*1256 FILLER_0_38_238
*1257 FILLER_0_38_250
*1258 FILLER_0_38_253
*1259 FILLER_0_38_265
*1260 FILLER_0_38_277
*1261 FILLER_0_38_281
*1262 FILLER_0_38_297
*1263 FILLER_0_38_302
*1264 FILLER_0_38_312
*1265 FILLER_0_38_319
*1266 FILLER_0_38_32
*1267 FILLER_0_38_328
*1268 FILLER_0_38_334
*1269 FILLER_0_38_38
*1270 FILLER_0_38_42
*1271 FILLER_0_38_46
*1272 FILLER_0_38_50
*1273 FILLER_0_38_54
*1274 FILLER_0_38_57
*1275 FILLER_0_38_6
*1276 FILLER_0_38_62
*1277 FILLER_0_38_66
*1278 FILLER_0_38_70
*1279 FILLER_0_38_74
*1280 FILLER_0_38_78
*1281 FILLER_0_38_85
*1282 FILLER_0_38_91
*1283 FILLER_0_38_95
*1284 FILLER_0_3_105
*1285 FILLER_0_3_111
*1286 FILLER_0_3_113
*1287 FILLER_0_3_125
*1288 FILLER_0_3_137
*1289 FILLER_0_3_149
*1290 FILLER_0_3_15
*1291 FILLER_0_3_161
*1292 FILLER_0_3_167
*1293 FILLER_0_3_169
*1294 FILLER_0_3_181
*1295 FILLER_0_3_193
*1296 FILLER_0_3_205
*1297 FILLER_0_3_217
*1298 FILLER_0_3_223
*1299 FILLER_0_3_225
*1300 FILLER_0_3_237
*1301 FILLER_0_3_249
*1302 FILLER_0_3_261
*1303 FILLER_0_3_27
*1304 FILLER_0_3_273
*1305 FILLER_0_3_279
*1306 FILLER_0_3_281
*1307 FILLER_0_3_293
*1308 FILLER_0_3_3
*1309 FILLER_0_3_305
*1310 FILLER_0_3_317
*1311 FILLER_0_3_329
*1312 FILLER_0_3_39
*1313 FILLER_0_3_51
*1314 FILLER_0_3_55
*1315 FILLER_0_3_57
*1316 FILLER_0_3_69
*1317 FILLER_0_3_81
*1318 FILLER_0_3_93
*1319 FILLER_0_4_109
*1320 FILLER_0_4_121
*1321 FILLER_0_4_133
*1322 FILLER_0_4_139
*1323 FILLER_0_4_141
*1324 FILLER_0_4_15
*1325 FILLER_0_4_153
*1326 FILLER_0_4_165
*1327 FILLER_0_4_177
*1328 FILLER_0_4_189
*1329 FILLER_0_4_195
*1330 FILLER_0_4_197
*1331 FILLER_0_4_209
*1332 FILLER_0_4_221
*1333 FILLER_0_4_233
*1334 FILLER_0_4_245
*1335 FILLER_0_4_251
*1336 FILLER_0_4_253
*1337 FILLER_0_4_265
*1338 FILLER_0_4_27
*1339 FILLER_0_4_277
*1340 FILLER_0_4_289
*1341 FILLER_0_4_29
*1342 FILLER_0_4_3
*1343 FILLER_0_4_301
*1344 FILLER_0_4_307
*1345 FILLER_0_4_309
*1346 FILLER_0_4_321
*1347 FILLER_0_4_333
*1348 FILLER_0_4_41
*1349 FILLER_0_4_53
*1350 FILLER_0_4_65
*1351 FILLER_0_4_77
*1352 FILLER_0_4_83
*1353 FILLER_0_4_85
*1354 FILLER_0_4_97
*1355 FILLER_0_5_105
*1356 FILLER_0_5_111
*1357 FILLER_0_5_113
*1358 FILLER_0_5_125
*1359 FILLER_0_5_137
*1360 FILLER_0_5_149
*1361 FILLER_0_5_15
*1362 FILLER_0_5_161
*1363 FILLER_0_5_167
*1364 FILLER_0_5_169
*1365 FILLER_0_5_181
*1366 FILLER_0_5_193
*1367 FILLER_0_5_205
*1368 FILLER_0_5_217
*1369 FILLER_0_5_223
*1370 FILLER_0_5_225
*1371 FILLER_0_5_237
*1372 FILLER_0_5_249
*1373 FILLER_0_5_261
*1374 FILLER_0_5_27
*1375 FILLER_0_5_273
*1376 FILLER_0_5_279
*1377 FILLER_0_5_281
*1378 FILLER_0_5_293
*1379 FILLER_0_5_3
*1380 FILLER_0_5_305
*1381 FILLER_0_5_317
*1382 FILLER_0_5_329
*1383 FILLER_0_5_39
*1384 FILLER_0_5_51
*1385 FILLER_0_5_55
*1386 FILLER_0_5_57
*1387 FILLER_0_5_69
*1388 FILLER_0_5_81
*1389 FILLER_0_5_93
*1390 FILLER_0_6_109
*1391 FILLER_0_6_121
*1392 FILLER_0_6_133
*1393 FILLER_0_6_139
*1394 FILLER_0_6_141
*1395 FILLER_0_6_15
*1396 FILLER_0_6_153
*1397 FILLER_0_6_165
*1398 FILLER_0_6_177
*1399 FILLER_0_6_189
*1400 FILLER_0_6_195
*1401 FILLER_0_6_197
*1402 FILLER_0_6_209
*1403 FILLER_0_6_221
*1404 FILLER_0_6_233
*1405 FILLER_0_6_245
*1406 FILLER_0_6_251
*1407 FILLER_0_6_253
*1408 FILLER_0_6_265
*1409 FILLER_0_6_27
*1410 FILLER_0_6_277
*1411 FILLER_0_6_289
*1412 FILLER_0_6_29
*1413 FILLER_0_6_3
*1414 FILLER_0_6_301
*1415 FILLER_0_6_307
*1416 FILLER_0_6_309
*1417 FILLER_0_6_321
*1418 FILLER_0_6_333
*1419 FILLER_0_6_41
*1420 FILLER_0_6_53
*1421 FILLER_0_6_65
*1422 FILLER_0_6_77
*1423 FILLER_0_6_83
*1424 FILLER_0_6_85
*1425 FILLER_0_6_97
*1426 FILLER_0_7_105
*1427 FILLER_0_7_111
*1428 FILLER_0_7_113
*1429 FILLER_0_7_125
*1430 FILLER_0_7_137
*1431 FILLER_0_7_149
*1432 FILLER_0_7_15
*1433 FILLER_0_7_161
*1434 FILLER_0_7_167
*1435 FILLER_0_7_169
*1436 FILLER_0_7_181
*1437 FILLER_0_7_193
*1438 FILLER_0_7_205
*1439 FILLER_0_7_217
*1440 FILLER_0_7_223
*1441 FILLER_0_7_225
*1442 FILLER_0_7_237
*1443 FILLER_0_7_249
*1444 FILLER_0_7_261
*1445 FILLER_0_7_27
*1446 FILLER_0_7_273
*1447 FILLER_0_7_279
*1448 FILLER_0_7_281
*1449 FILLER_0_7_293
*1450 FILLER_0_7_3
*1451 FILLER_0_7_305
*1452 FILLER_0_7_317
*1453 FILLER_0_7_329
*1454 FILLER_0_7_39
*1455 FILLER_0_7_51
*1456 FILLER_0_7_55
*1457 FILLER_0_7_57
*1458 FILLER_0_7_69
*1459 FILLER_0_7_81
*1460 FILLER_0_7_93
*1461 FILLER_0_8_109
*1462 FILLER_0_8_121
*1463 FILLER_0_8_133
*1464 FILLER_0_8_139
*1465 FILLER_0_8_141
*1466 FILLER_0_8_15
*1467 FILLER_0_8_153
*1468 FILLER_0_8_165
*1469 FILLER_0_8_177
*1470 FILLER_0_8_189
*1471 FILLER_0_8_195
*1472 FILLER_0_8_197
*1473 FILLER_0_8_209
*1474 FILLER_0_8_221
*1475 FILLER_0_8_233
*1476 FILLER_0_8_245
*1477 FILLER_0_8_251
*1478 FILLER_0_8_253
*1479 FILLER_0_8_265
*1480 FILLER_0_8_27
*1481 FILLER_0_8_277
*1482 FILLER_0_8_289
*1483 FILLER_0_8_29
*1484 FILLER_0_8_3
*1485 FILLER_0_8_301
*1486 FILLER_0_8_307
*1487 FILLER_0_8_309
*1488 FILLER_0_8_321
*1489 FILLER_0_8_333
*1490 FILLER_0_8_41
*1491 FILLER_0_8_53
*1492 FILLER_0_8_65
*1493 FILLER_0_8_77
*1494 FILLER_0_8_83
*1495 FILLER_0_8_85
*1496 FILLER_0_8_97
*1497 FILLER_0_9_105
*1498 FILLER_0_9_111
*1499 FILLER_0_9_113
*1500 FILLER_0_9_125
*1501 FILLER_0_9_137
*1502 FILLER_0_9_149
*1503 FILLER_0_9_15
*1504 FILLER_0_9_161
*1505 FILLER_0_9_167
*1506 FILLER_0_9_169
*1507 FILLER_0_9_181
*1508 FILLER_0_9_193
*1509 FILLER_0_9_205
*1510 FILLER_0_9_217
*1511 FILLER_0_9_223
*1512 FILLER_0_9_225
*1513 FILLER_0_9_237
*1514 FILLER_0_9_249
*1515 FILLER_0_9_261
*1516 FILLER_0_9_27
*1517 FILLER_0_9_273
*1518 FILLER_0_9_279
*1519 FILLER_0_9_281
*1520 FILLER_0_9_293
*1521 FILLER_0_9_3
*1522 FILLER_0_9_305