*SPEF "ieee 1481-1999"
*DESIGN "tt_um_advanced_counter"
*DATE "08:16:44 Wednesday April 10, 2024"
*VENDOR "The OpenROAD Project"
*PROGRAM "OpenROAD"
*VERSION "0889970d1790a2617e69f253221b8bd7626e51dc"
*DESIGN_FLOW "NAME_SCOPE LOCAL" "PIN_CAP NONE"
*DIVIDER /
*DELIMITER :
*BUS_DELIMITER []
*T_UNIT 1 NS
*C_UNIT 1 PF
*R_UNIT 1 OHM
*L_UNIT 1 HENRY

*NAME_MAP
*3 clk
*4 ena
*5 rst_n
*6 ui_in[0]
*7 ui_in[1]
*8 ui_in[2]
*9 ui_in[3]
*10 ui_in[4]
*11 ui_in[5]
*12 ui_in[6]
*13 ui_in[7]
*14 uio_in[0]
*15 uio_in[1]
*16 uio_in[2]
*17 uio_in[3]
*18 uio_in[4]
*19 uio_in[5]
*20 uio_in[6]
*21 uio_in[7]
*22 net37
*23 net38
*24 net39
*25 net40
*26 net21
*27 net22
*28 net23
*29 net24
*30 net25
*31 net26
*32 net27
*33 net28
*34 net29
*35 net30
*36 uio_out[6]
*37 uio_out[7]
*38 uo_out[0]
*39 uo_out[1]
*40 net31
*41 net32
*42 net33
*43 net34
*44 net35
*45 net36
*46 _0000_
*47 _0001_
*48 _0002_
*49 _0003_
*50 _0004_
*51 _0005_
*52 _0006_
*53 _0007_
*54 _0008_
*55 _0009_
*56 _0010_
*57 _0011_
*58 _0012_
*59 _0013_
*60 _0014_
*61 _0015_
*62 _0016_
*63 _0017_
*64 _0018_
*65 _0019_
*66 _0020_
*67 _0021_
*68 _0022_
*69 _0023_
*70 _0024_
*71 _0025_
*72 _0026_
*73 _0027_
*74 _0028_
*75 _0029_
*76 _0030_
*77 _0031_
*78 _0032_
*79 _0033_
*80 _0034_
*81 _0035_
*82 _0036_
*83 _0037_
*84 _0038_
*85 _0039_
*86 _0040_
*87 _0041_
*88 _0042_
*89 _0043_
*90 _0044_
*91 _0045_
*92 _0046_
*93 _0047_
*94 _0048_
*95 _0049_
*96 _0050_
*97 _0051_
*98 _0052_
*99 _0053_
*100 _0054_
*101 _0055_
*102 _0056_
*103 _0057_
*104 _0058_
*105 _0059_
*106 _0060_
*107 _0061_
*108 _0062_
*109 _0063_
*110 _0064_
*111 _0065_
*112 _0066_
*113 _0067_
*114 _0068_
*115 _0069_
*116 _0070_
*117 _0071_
*118 _0072_
*119 _0073_
*120 _0074_
*121 _0075_
*122 _0076_
*123 _0077_
*124 _0078_
*125 _0079_
*126 _0080_
*127 _0081_
*128 _0082_
*129 _0083_
*130 _0084_
*131 _0085_
*132 _0086_
*133 _0087_
*134 _0088_
*135 _0089_
*136 _0090_
*137 _0091_
*138 _0092_
*139 _0093_
*140 _0094_
*141 _0095_
*142 _0096_
*143 _0097_
*144 _0098_
*145 _0099_
*146 _0100_
*147 _0101_
*148 _0102_
*149 _0103_
*150 _0104_
*151 _0105_
*152 _0106_
*153 _0107_
*154 _0108_
*155 _0109_
*156 _0110_
*157 _0111_
*158 _0112_
*159 _0113_
*160 _0114_
*161 _0115_
*162 _0116_
*163 _0117_
*164 _0118_
*165 _0119_
*166 _0120_
*167 _0121_
*168 _0122_
*169 _0123_
*170 _0124_
*171 _0125_
*172 _0126_
*173 _0127_
*174 _0128_
*175 _0129_
*176 _0130_
*177 _0131_
*178 _0132_
*179 _0133_
*180 _0134_
*181 _0135_
*182 _0136_
*183 _0137_
*184 _0138_
*185 _0139_
*186 _0140_
*187 _0141_
*188 _0142_
*189 _0143_
*190 _0144_
*191 _0145_
*192 _0146_
*193 _0147_
*194 _0148_
*195 _0149_
*196 _0150_
*197 _0151_
*198 _0152_
*199 _0153_
*200 _0154_
*201 _0155_
*202 _0156_
*203 _0157_
*204 _0158_
*205 _0159_
*206 _0160_
*207 _0161_
*208 _0162_
*209 _0163_
*210 _0164_
*211 _0165_
*212 _0166_
*213 _0167_
*214 _0168_
*215 _0169_
*216 _0170_
*217 _0171_
*218 _0172_
*219 _0173_
*220 _0174_
*221 _0175_
*222 _0176_
*223 _0177_
*224 _0178_
*225 _0179_
*226 _0180_
*227 _0181_
*228 _0182_
*229 _0183_
*230 _0184_
*231 _0185_
*232 _0186_
*233 _0187_
*234 _0188_
*235 _0189_
*236 _0190_
*237 _0191_
*238 _0192_
*239 _0193_
*240 _0194_
*241 _0195_
*242 _0196_
*243 _0197_
*244 _0198_
*245 _0199_
*246 _0200_
*247 _0201_
*248 _0202_
*249 _0203_
*250 _0204_
*251 _0205_
*252 _0206_
*253 _0207_
*254 _0208_
*255 _0209_
*256 _0210_
*257 _0211_
*258 _0212_
*259 _0213_
*260 _0214_
*261 _0215_
*262 _0216_
*263 _0217_
*264 _0218_
*265 _0219_
*266 _0220_
*267 _0221_
*268 _0222_
*269 _0223_
*270 _0224_
*271 _0225_
*272 _0226_
*273 _0227_
*274 _0228_
*275 _0229_
*276 _0230_
*277 _0231_
*278 _0232_
*279 _0233_
*280 _0234_
*281 _0235_
*282 _0236_
*283 _0237_
*284 _0238_
*285 _0239_
*286 _0240_
*287 _0241_
*288 _0242_
*289 _0243_
*290 _0244_
*291 _0245_
*292 _0246_
*293 _0247_
*294 _0248_
*295 _0249_
*296 _0250_
*297 _0251_
*298 _0252_
*299 _0253_
*300 _0254_
*301 _0255_
*302 _0256_
*303 _0257_
*304 _0258_
*305 _0259_
*306 _0260_
*307 _0261_
*308 _0262_
*309 _0263_
*310 _0264_
*311 _0265_
*312 _0266_
*313 _0267_
*314 _0268_
*315 _0269_
*316 _0270_
*317 _0271_
*318 _0272_
*319 _0273_
*320 _0274_
*321 _0275_
*322 _0276_
*323 _0277_
*324 _0278_
*325 _0279_
*326 _0280_
*327 _0281_
*328 _0282_
*329 _0283_
*330 _0284_
*331 _0285_
*332 _0286_
*333 _0287_
*334 _0288_
*335 _0289_
*336 _0290_
*337 _0291_
*338 _0292_
*339 _0293_
*340 _0294_
*341 _0295_
*342 _0296_
*343 _0297_
*344 _0298_
*345 _0299_
*346 _0300_
*347 _0301_
*348 _0302_
*349 _0303_
*350 _0304_
*351 _0305_
*352 _0306_
*353 _0307_
*354 _0308_
*355 _0309_
*356 _0310_
*357 _0311_
*358 _0312_
*359 _0313_
*360 _0314_
*361 _0315_
*362 _0316_
*363 _0317_
*364 _0318_
*365 _0319_
*366 _0320_
*367 _0321_
*368 _0322_
*369 _0323_
*370 _0324_
*371 _0325_
*372 _0326_
*373 _0327_
*374 _0328_
*375 _0329_
*376 _0330_
*377 _0331_
*378 _0332_
*379 _0333_
*380 _0334_
*381 _0335_
*382 _0336_
*383 _0337_
*384 _0338_
*385 _0339_
*386 _0340_
*387 _0341_
*388 _0342_
*389 _0343_
*390 _0344_
*391 _0345_
*392 _0346_
*393 _0347_
*394 _0348_
*395 _0349_
*396 _0350_
*397 _0351_
*398 _0352_
*399 _0353_
*400 _0354_
*401 _0355_
*402 _0356_
*403 _0357_
*404 _0358_
*405 _0359_
*406 _0360_
*407 _0361_
*408 _0362_
*409 _0363_
*410 _0364_
*411 _0365_
*412 _0366_
*413 _0367_
*414 _0368_
*415 _0369_
*416 _0370_
*417 _0371_
*418 _0372_
*419 _0373_
*420 _0374_
*421 _0375_
*422 _0376_
*423 _0377_
*424 _0378_
*425 _0379_
*426 _0380_
*427 _0381_
*428 _0382_
*429 _0383_
*430 _0384_
*431 _0385_
*432 _0386_
*433 _0387_
*434 _0388_
*435 _0389_
*436 _0390_
*437 _0391_
*438 _0392_
*439 _0393_
*440 _0394_
*441 _0395_
*442 _0396_
*443 _0397_
*444 _0398_
*445 _0399_
*446 _0400_
*447 _0401_
*448 _0402_
*449 _0403_
*450 _0404_
*451 _0405_
*452 _0406_
*453 _0407_
*454 _0408_
*455 _0409_
*456 _0410_
*457 _0411_
*458 _0412_
*459 _0413_
*460 _0414_
*461 _0415_
*462 _0416_
*463 _0417_
*464 _0418_
*465 _0419_
*466 _0420_
*467 _0421_
*468 _0422_
*469 _0423_
*470 _0424_
*471 _0425_
*472 _0426_
*473 _0427_
*474 _0428_
*475 _0429_
*476 _0430_
*477 _0431_
*478 _0432_
*479 _0433_
*480 _0434_
*481 _0435_
*482 _0436_
*483 _0437_
*484 _0438_
*485 _0439_
*486 _0440_
*487 _0441_
*488 _0442_
*489 _0443_
*490 _0444_
*491 _0445_
*492 _0446_
*493 _0447_
*494 _0448_
*495 _0449_
*496 _0450_
*497 _0451_
*498 _0452_
*499 _0453_
*500 _0454_
*501 _0455_
*502 _0456_
*503 _0457_
*504 _0458_
*505 _0459_
*506 _0460_
*507 _0461_
*508 _0462_
*509 _0463_
*510 _0464_
*511 _0465_
*512 _0466_
*513 _0467_
*514 _0468_
*515 _0469_
*516 _0470_
*517 _0471_
*518 _0472_
*519 _0473_
*520 _0474_
*521 _0475_
*522 _0476_
*523 _0477_
*524 _0478_
*525 _0479_
*526 _0480_
*527 _0481_
*528 _0482_
*529 _0483_
*530 _0484_
*531 _0485_
*532 _0486_
*533 _0487_
*534 _0488_
*535 _0489_
*536 _0490_
*537 _0491_
*538 _0492_
*539 _0493_
*540 _0494_
*541 _0495_
*542 _0496_
*543 _0497_
*544 _0498_
*545 _0499_
*546 _0500_
*547 _0501_
*548 _0502_
*549 _0503_
*550 _0504_
*551 _0505_
*552 _0506_
*553 _0507_
*554 _0508_
*555 _0509_
*556 _0510_
*557 _0511_
*558 _0512_
*559 _0513_
*560 _0514_
*561 _0515_
*562 _0516_
*563 _0517_
*564 _0518_
*565 _0519_
*566 _0520_
*567 _0521_
*568 _0522_
*569 _0523_
*570 _0524_
*571 _0525_
*572 _0526_
*573 _0527_
*574 _0528_
*575 _0529_
*576 _0530_
*577 _0531_
*578 _0532_
*579 _0533_
*580 _0534_
*581 _0535_
*582 _0536_
*583 _0537_
*584 _0538_
*585 _0539_
*586 _0540_
*587 _0541_
*588 _0542_
*589 _0543_
*590 _0544_
*591 _0545_
*592 _0546_
*593 _0547_
*594 _0548_
*595 _0549_
*596 _0550_
*597 _0551_
*598 _0552_
*599 _0553_
*600 _0554_
*601 _0555_
*602 _0556_
*603 _0557_
*604 _0558_
*605 _0559_
*606 _0560_
*607 _0561_
*608 _0562_
*609 _0563_
*610 _0564_
*611 _0565_
*612 _0566_
*613 _0567_
*614 _0568_
*615 _0569_
*616 _0570_
*617 _0571_
*618 _0572_
*619 _0573_
*620 _0574_
*621 _0575_
*622 _0576_
*623 _0577_
*624 _0578_
*625 _0579_
*626 _0580_
*627 _0581_
*628 _0582_
*629 _0583_
*630 _0584_
*631 _0585_
*632 _0586_
*633 _0587_
*634 _0588_
*635 _0589_
*636 _0590_
*637 _0591_
*638 _0592_
*639 _0593_
*640 _0594_
*641 _0595_
*642 _0596_
*643 _0597_
*644 _0598_
*645 _0599_
*646 _0600_
*647 _0601_
*648 _0602_
*649 _0603_
*650 _0604_
*651 _0605_
*652 _0606_
*653 _0607_
*654 _0608_
*655 _0609_
*656 _0610_
*657 _0611_
*658 _0612_
*659 _0613_
*660 _0614_
*661 _0615_
*662 _0616_
*663 _0617_
*664 _0618_
*665 _0619_
*666 _0620_
*667 _0621_
*668 _0622_
*669 _0623_
*670 _0624_
*671 _0625_
*672 _0626_
*673 _0627_
*674 _0628_
*675 _0629_
*676 _0630_
*677 _0631_
*678 _0632_
*679 _0633_
*680 _0634_
*681 _0635_
*682 _0636_
*683 _0637_
*684 _0638_
*685 _0639_
*686 _0640_
*687 _0641_
*688 _0642_
*689 _0643_
*690 _0644_
*691 _0645_
*692 _0646_
*693 _0647_
*694 _0648_
*695 _0649_
*696 _0650_
*697 _0651_
*698 _0652_
*699 _0653_
*700 _0654_
*701 _0655_
*702 _0656_
*703 _0657_
*704 _0658_
*705 _0659_
*706 _0660_
*707 _0661_
*708 _0662_
*709 _0663_
*710 _0664_
*711 _0665_
*712 _0666_
*713 _0667_
*714 _0668_
*715 _0669_
*716 _0670_
*717 _0671_
*718 _0672_
*719 _0673_
*720 _0674_
*721 _0675_
*722 _0676_
*723 _0677_
*724 _0678_
*725 _0679_
*726 _0680_
*727 _0681_
*728 _0682_
*729 _0683_
*730 _0684_
*731 _0685_
*732 _0686_
*733 _0687_
*734 _0688_
*735 _0689_
*736 _0690_
*737 _0691_
*738 _0692_
*739 _0693_
*740 _0694_
*741 _0695_
*742 _0696_
*743 _0697_
*744 _0698_
*745 _0699_
*746 _0700_
*747 _0701_
*748 _0702_
*749 _0703_
*750 _0704_
*751 _0705_
*752 _0706_
*753 _0707_
*754 _0708_
*755 _0709_
*756 _0710_
*757 _0711_
*758 _0712_
*759 _0713_
*760 _0714_
*761 _0715_
*762 _0716_
*763 _0717_
*764 _0718_
*765 _0719_
*766 _0720_
*767 _0721_
*768 _0722_
*769 _0723_
*770 _0724_
*771 _0725_
*772 _0726_
*773 _0727_
*774 _0728_
*775 _0729_
*776 _0730_
*777 _0731_
*778 _0732_
*779 _0733_
*780 _0734_
*781 _0735_
*782 _0736_
*783 _0737_
*784 _0738_
*785 _0739_
*786 _0740_
*787 _0741_
*788 _0742_
*789 _0743_
*790 _0744_
*791 _0745_
*792 _0746_
*793 _0747_
*794 _0748_
*795 _0749_
*796 _0750_
*797 _0751_
*798 _0752_
*799 _0753_
*800 _0754_
*801 _0755_
*802 _0756_
*803 _0757_
*804 _0758_
*805 _0759_
*806 _0760_
*807 _0761_
*808 _0762_
*809 _0763_
*810 _0764_
*811 _0765_
*812 _0766_
*813 _0767_
*814 _0768_
*815 _0769_
*816 _0770_
*817 _0771_
*818 _0772_
*819 _0773_
*820 _0774_
*821 _0775_
*822 _0776_
*823 _0777_
*824 _0778_
*825 _0779_
*826 _0780_
*827 _0781_
*828 _0782_
*829 _0783_
*830 _0784_
*831 _0785_
*832 _0786_
*833 _0787_
*834 _0788_
*835 _0789_
*836 _0790_
*837 _0791_
*838 _0792_
*839 _0793_
*840 _0794_
*841 _0795_
*842 _0796_
*843 _0797_
*844 _0798_
*845 _0799_
*846 _0800_
*847 _0801_
*848 _0802_
*849 _0803_
*850 _0804_
*851 _0805_
*852 _0806_
*853 _0807_
*854 _0808_
*855 _0809_
*856 _0810_
*857 _0811_
*858 _0812_
*859 _0813_
*860 _0814_
*861 _0815_
*862 _0816_
*863 _0817_
*864 _0818_
*865 _0819_
*866 _0820_
*867 _0821_
*868 _0822_
*869 _0823_
*870 _0824_
*871 _0825_
*872 _0826_
*873 _0827_
*874 _0828_
*875 _0829_
*876 _0830_
*877 _0831_
*878 _0832_
*879 _0833_
*880 _0834_
*881 _0835_
*882 _0836_
*883 _0837_
*884 _0838_
*885 _0839_
*886 _0840_
*887 _0841_
*888 _0842_
*889 _0843_
*890 _0844_
*891 _0845_
*892 _0846_
*893 _0847_
*894 _0848_
*895 _0849_
*896 _0850_
*897 _0851_
*898 _0852_
*899 _0853_
*900 _0854_
*901 _0855_
*902 _0856_
*903 _0857_
*904 _0858_
*905 _0859_
*906 _0860_
*907 _0861_
*908 _0862_
*909 _0863_
*910 _0864_
*911 _0865_
*912 _0866_
*913 _0867_
*914 _0868_
*915 _0869_
*916 _0870_
*917 _0871_
*918 _0872_
*919 _0873_
*920 _0874_
*921 _0875_
*922 _0876_
*923 _0877_
*924 _0878_
*925 _0879_
*926 _0880_
*927 _0881_
*928 _0882_
*929 _0883_
*930 _0884_
*931 _0885_
*932 _0886_
*933 _0887_
*934 _0888_
*935 _0889_
*936 _0890_
*937 _0891_
*938 _0892_
*939 _0893_
*940 _0894_
*941 _0895_
*942 _0896_
*943 _0897_
*944 _0898_
*945 _0899_
*946 _0900_
*947 _0901_
*948 _0902_
*949 _0903_
*950 _0904_
*951 _0905_
*952 _0906_
*953 _0907_
*954 _0908_
*955 _0909_
*956 _0910_
*957 _0911_
*958 _0912_
*959 _0913_
*960 _0914_
*961 _0915_
*962 _0916_
*963 _0917_
*964 _0918_
*965 _0919_
*966 _0920_
*967 _0921_
*968 _0922_
*969 _0923_
*970 _0924_
*971 _0925_
*972 _0926_
*973 _0927_
*974 _0928_
*975 _0929_
*976 _0930_
*977 _0931_
*978 _0932_
*979 _0933_
*980 _0934_
*981 _0935_
*982 _0936_
*983 _0937_
*984 _0938_
*985 _0939_
*986 _0940_
*987 _0941_
*988 _0942_
*989 _0943_
*990 _0944_
*991 _0945_
*992 _0946_
*993 _0947_
*994 _0948_
*995 _0949_
*996 _0950_
*997 _0951_
*998 _0952_
*999 _0953_
*1000 _0954_
*1001 _0955_
*1002 _0956_
*1003 clknet_0_clk
*1004 clknet_4_0_0_clk
*1005 clknet_4_10_0_clk
*1006 clknet_4_11_0_clk
*1007 clknet_4_12_0_clk
*1008 clknet_4_13_0_clk
*1009 clknet_4_14_0_clk
*1010 clknet_4_15_0_clk
*1011 clknet_4_1_0_clk
*1012 clknet_4_2_0_clk
*1013 clknet_4_3_0_clk
*1014 clknet_4_4_0_clk
*1015 clknet_4_5_0_clk
*1016 clknet_4_6_0_clk
*1017 clknet_4_7_0_clk
*1018 clknet_4_8_0_clk
*1019 clknet_4_9_0_clk
*1020 genblk1\[0\]\.digitcounter\.carry
*1021 genblk1\[0\]\.digitcounter\.carry_en
*1022 genblk1\[0\]\.digitcounter\.cnt\[0\]
*1023 genblk1\[0\]\.digitcounter\.cnt\[1\]
*1024 genblk1\[0\]\.digitcounter\.cnt\[2\]
*1025 genblk1\[0\]\.digitcounter\.cnt\[3\]
*1026 genblk1\[0\]\.digitcounter\.max_val\[0\]
*1027 genblk1\[0\]\.digitcounter\.max_val\[1\]
*1028 genblk1\[0\]\.digitcounter\.max_val\[2\]
*1029 genblk1\[0\]\.digitcounter\.max_val\[3\]
*1030 genblk1\[1\]\.digitcounter\.carry
*1031 genblk1\[1\]\.digitcounter\.cnt\[0\]
*1032 genblk1\[1\]\.digitcounter\.cnt\[1\]
*1033 genblk1\[1\]\.digitcounter\.cnt\[2\]
*1034 genblk1\[1\]\.digitcounter\.cnt\[3\]
*1035 genblk1\[1\]\.digitcounter\.max_val\[0\]
*1036 genblk1\[1\]\.digitcounter\.max_val\[1\]
*1037 genblk1\[1\]\.digitcounter\.max_val\[2\]
*1038 genblk1\[1\]\.digitcounter\.max_val\[3\]
*1039 mySynchronizer\.data_in\[0\]
*1040 mySynchronizer\.data_in\[1\]
*1041 mySynchronizer\.data_out\[0\]
*1042 mySynchronizer\.data_out\[1\]
*1043 mydecodshift\.State\[0\]
*1044 mydecodshift\.State\[1\]
*1045 mydecodshift\.State\[2\]
*1046 mydecodshift\.decoded\[0\]
*1047 mydecodshift\.decoded\[10\]
*1048 mydecodshift\.decoded\[11\]
*1049 mydecodshift\.decoded\[12\]
*1050 mydecodshift\.decoded\[13\]
*1051 mydecodshift\.decoded\[14\]
*1052 mydecodshift\.decoded\[15\]
*1053 mydecodshift\.decoded\[1\]
*1054 mydecodshift\.decoded\[2\]
*1055 mydecodshift\.decoded\[3\]
*1056 mydecodshift\.decoded\[4\]
*1057 mydecodshift\.decoded\[5\]
*1058 mydecodshift\.decoded\[6\]
*1059 mydecodshift\.decoded\[7\]
*1060 mydecodshift\.decoded\[8\]
*1061 mydecodshift\.decoded\[9\]
*1062 mydecodshift\.decoder\.bcd_in\[0\]
*1063 mydecodshift\.decoder\.bcd_in\[1\]
*1064 mydecodshift\.decoder\.bcd_in\[2\]
*1065 mydecodshift\.decoder\.bcd_in\[3\]
*1066 mydecodshift\.done_flag
*1067 mydecodshift\.in_save\[0\]
*1068 mydecodshift\.in_save\[1\]
*1069 mydecodshift\.in_save\[2\]
*1070 mydecodshift\.in_save\[3\]
*1071 mydecodshift\.in_save\[4\]
*1072 mydecodshift\.in_save\[5\]
*1073 mydecodshift\.in_save\[6\]
*1074 mydecodshift\.in_save\[7\]
*1075 mydecodshift\.runDecode\[0\]
*1076 mydecodshift\.runDecode\[10\]
*1077 mydecodshift\.runDecode\[11\]
*1078 mydecodshift\.runDecode\[12\]
*1079 mydecodshift\.runDecode\[13\]
*1080 mydecodshift\.runDecode\[14\]
*1081 mydecodshift\.runDecode\[15\]
*1082 mydecodshift\.runDecode\[16\]
*1083 mydecodshift\.runDecode\[17\]
*1084 mydecodshift\.runDecode\[18\]
*1085 mydecodshift\.runDecode\[19\]
*1086 mydecodshift\.runDecode\[1\]
*1087 mydecodshift\.runDecode\[20\]
*1088 mydecodshift\.runDecode\[21\]
*1089 mydecodshift\.runDecode\[22\]
*1090 mydecodshift\.runDecode\[23\]
*1091 mydecodshift\.runDecode\[24\]
*1092 mydecodshift\.runDecode\[25\]
*1093 mydecodshift\.runDecode\[26\]
*1094 mydecodshift\.runDecode\[27\]
*1095 mydecodshift\.runDecode\[28\]
*1096 mydecodshift\.runDecode\[29\]
*1097 mydecodshift\.runDecode\[2\]
*1098 mydecodshift\.runDecode\[30\]
*1099 mydecodshift\.runDecode\[31\]
*1100 mydecodshift\.runDecode\[3\]
*1101 mydecodshift\.runDecode\[4\]
*1102 mydecodshift\.runDecode\[5\]
*1103 mydecodshift\.runDecode\[6\]
*1104 mydecodshift\.runDecode\[7\]
*1105 mydecodshift\.runDecode\[8\]
*1106 mydecodshift\.runDecode\[9\]
*1107 mydecodshift\.runSave\[10\]
*1108 mydecodshift\.runSave\[11\]
*1109 mydecodshift\.runSave\[12\]
*1110 mydecodshift\.runSave\[13\]
*1111 mydecodshift\.runSave\[14\]
*1112 mydecodshift\.runSave\[15\]
*1113 mydecodshift\.runSave\[16\]
*1114 mydecodshift\.runSave\[17\]
*1115 mydecodshift\.runSave\[18\]
*1116 mydecodshift\.runSave\[19\]
*1117 mydecodshift\.runSave\[20\]
*1118 mydecodshift\.runSave\[21\]
*1119 mydecodshift\.runSave\[22\]
*1120 mydecodshift\.runSave\[23\]
*1121 mydecodshift\.runSave\[24\]
*1122 mydecodshift\.runSave\[25\]
*1123 mydecodshift\.runSave\[26\]
*1124 mydecodshift\.runSave\[27\]
*1125 mydecodshift\.runSave\[28\]
*1126 mydecodshift\.runSave\[29\]
*1127 mydecodshift\.runSave\[2\]
*1128 mydecodshift\.runSave\[30\]
*1129 mydecodshift\.runSave\[31\]
*1130 mydecodshift\.runSave\[3\]
*1131 mydecodshift\.runSave\[4\]
*1132 mydecodshift\.runSave\[5\]
*1133 mydecodshift\.runSave\[6\]
*1134 mydecodshift\.runSave\[7\]
*1135 mydecodshift\.runSave\[8\]
*1136 mydecodshift\.runSave\[9\]
*1137 mydecodshift\.trigger
*1138 myinput_trigger\.State\[0\]
*1139 myinput_trigger\.State\[1\]
*1140 myinput_trigger\.State\[2\]
*1141 myinput_trigger\.State\[3\]
*1142 myinput_trigger\.active_triggers\[0\]
*1143 myinput_trigger\.active_triggers\[1\]
*1144 myinput_trigger\.counter\[0\]
*1145 myinput_trigger\.counter\[10\]
*1146 myinput_trigger\.counter\[11\]
*1147 myinput_trigger\.counter\[12\]
*1148 myinput_trigger\.counter\[1\]
*1149 myinput_trigger\.counter\[2\]
*1150 myinput_trigger\.counter\[3\]
*1151 myinput_trigger\.counter\[4\]
*1152 myinput_trigger\.counter\[5\]
*1153 myinput_trigger\.counter\[6\]
*1154 myinput_trigger\.counter\[7\]
*1155 myinput_trigger\.counter\[8\]
*1156 myinput_trigger\.counter\[9\]
*1157 myinput_trigger\.inc_clk
*1158 mymodeselect\.current_limit\[0\]
*1159 mymodeselect\.current_limit\[1\]
*1160 mymodeselect\.current_limit\[2\]
*1161 mymodeselect\.current_limit\[3\]
*1162 mymodeselect\.current_limit\[4\]
*1163 mymodeselect\.current_limit\[5\]
*1164 mymodeselect\.current_limit\[6\]
*1165 mymodeselect\.current_limit\[7\]
*1166 mymodeselect\.max_flag
*1167 net1
*1168 net10
*1169 net100
*1170 net101
*1171 net102
*1172 net103
*1173 net104
*1174 net105
*1175 net106
*1176 net107
*1177 net108
*1178 net109
*1179 net11
*1180 net110
*1181 net111
*1182 net112
*1183 net113
*1184 net114
*1185 net115
*1186 net116
*1187 net117
*1188 net118
*1189 net119
*1190 net12
*1191 net120
*1192 net121
*1193 net122
*1194 net123
*1195 net124
*1196 net125
*1197 net126
*1198 net127
*1199 net128
*1200 net129
*1201 net13
*1202 net130
*1203 net131
*1204 net132
*1205 net133
*1206 net134
*1207 net135
*1208 net136
*1209 net14
*1210 net15
*1211 net16
*1212 net17
*1213 net18
*1214 net19
*1215 net2
*1216 net20
*1217 net3
*1218 net4
*1219 net41
*1220 net42
*1221 net43
*1222 net44
*1223 net45
*1224 net46
*1225 net47
*1226 net48
*1227 net49
*1228 net5
*1229 net50
*1230 net51
*1231 net52
*1232 net53
*1233 net54
*1234 net55
*1235 net56
*1236 net57
*1237 net58
*1238 net59
*1239 net6
*1240 net60
*1241 net61
*1242 net62
*1243 net63
*1244 net64
*1245 net65
*1246 net66
*1247 net67
*1248 net68
*1249 net69
*1250 net7
*1251 net70
*1252 net71
*1253 net72
*1254 net73
*1255 net74
*1256 net75
*1257 net76
*1258 net77
*1259 net78
*1260 net79
*1261 net8
*1262 net80
*1263 net81
*1264 net82
*1265 net83
*1266 net84
*1267 net85
*1268 net86
*1269 net87
*1270 net88
*1271 net89
*1272 net9
*1273 net90
*1274 net91
*1275 net92
*1276 net93
*1277 net94
*1278 net95
*1279 net96
*1280 net97
*1281 net98
*1282 net99
*1283 FILLER_0_0_101
*1284 FILLER_0_0_109
*1285 FILLER_0_0_113
*1286 FILLER_0_0_121
*1287 FILLER_0_0_144
*1288 FILLER_0_0_15
*1289 FILLER_0_0_156
*1290 FILLER_0_0_169
*1291 FILLER_0_0_181
*1292 FILLER_0_0_193
*1293 FILLER_0_0_197
*1294 FILLER_0_0_205
*1295 FILLER_0_0_249
*1296 FILLER_0_0_253
*1297 FILLER_0_0_27
*1298 FILLER_0_0_278
*1299 FILLER_0_0_281
*1300 FILLER_0_0_29
*1301 FILLER_0_0_293
*1302 FILLER_0_0_3
*1303 FILLER_0_0_305
*1304 FILLER_0_0_309
*1305 FILLER_0_0_321
*1306 FILLER_0_0_333
*1307 FILLER_0_0_41
*1308 FILLER_0_0_53
*1309 FILLER_0_0_57
*1310 FILLER_0_0_61
*1311 FILLER_0_0_79
*1312 FILLER_0_0_83
*1313 FILLER_0_10_103
*1314 FILLER_0_10_11
*1315 FILLER_0_10_126
*1316 FILLER_0_10_132
*1317 FILLER_0_10_141
*1318 FILLER_0_10_151
*1319 FILLER_0_10_159
*1320 FILLER_0_10_165
*1321 FILLER_0_10_171
*1322 FILLER_0_10_182
*1323 FILLER_0_10_197
*1324 FILLER_0_10_205
*1325 FILLER_0_10_233
*1326 FILLER_0_10_24
*1327 FILLER_0_10_250
*1328 FILLER_0_10_253
*1329 FILLER_0_10_3
*1330 FILLER_0_10_307
*1331 FILLER_0_10_309
*1332 FILLER_0_10_317
*1333 FILLER_0_10_34
*1334 FILLER_0_10_38
*1335 FILLER_0_10_52
*1336 FILLER_0_10_57
*1337 FILLER_0_10_69
*1338 FILLER_0_10_80
*1339 FILLER_0_10_92
*1340 FILLER_0_11_109
*1341 FILLER_0_11_113
*1342 FILLER_0_11_117
*1343 FILLER_0_11_140
*1344 FILLER_0_11_154
*1345 FILLER_0_11_167
*1346 FILLER_0_11_169
*1347 FILLER_0_11_181
*1348 FILLER_0_11_197
*1349 FILLER_0_11_204
*1350 FILLER_0_11_210
*1351 FILLER_0_11_251
*1352 FILLER_0_11_278
*1353 FILLER_0_11_281
*1354 FILLER_0_11_298
*1355 FILLER_0_11_30
*1356 FILLER_0_11_311
*1357 FILLER_0_11_331
*1358 FILLER_0_11_42
*1359 FILLER_0_11_54
*1360 FILLER_0_11_64
*1361 FILLER_0_11_69
*1362 FILLER_0_11_77
*1363 FILLER_0_11_89
*1364 FILLER_0_12_100
*1365 FILLER_0_12_112
*1366 FILLER_0_12_116
*1367 FILLER_0_12_124
*1368 FILLER_0_12_141
*1369 FILLER_0_12_163
*1370 FILLER_0_12_171
*1371 FILLER_0_12_185
*1372 FILLER_0_12_191
*1373 FILLER_0_12_195
*1374 FILLER_0_12_202
*1375 FILLER_0_12_206
*1376 FILLER_0_12_23
*1377 FILLER_0_12_231
*1378 FILLER_0_12_248
*1379 FILLER_0_12_27
*1380 FILLER_0_12_298
*1381 FILLER_0_12_3
*1382 FILLER_0_12_306
*1383 FILLER_0_12_325
*1384 FILLER_0_12_333
*1385 FILLER_0_12_82
*1386 FILLER_0_12_9
*1387 FILLER_0_13_109
*1388 FILLER_0_13_119
*1389 FILLER_0_13_134
*1390 FILLER_0_13_138
*1391 FILLER_0_13_151
*1392 FILLER_0_13_163
*1393 FILLER_0_13_167
*1394 FILLER_0_13_174
*1395 FILLER_0_13_183
*1396 FILLER_0_13_210
*1397 FILLER_0_13_218
*1398 FILLER_0_13_242
*1399 FILLER_0_13_250
*1400 FILLER_0_13_260
*1401 FILLER_0_13_27
*1402 FILLER_0_13_270
*1403 FILLER_0_13_278
*1404 FILLER_0_13_281
*1405 FILLER_0_13_302
*1406 FILLER_0_13_324
*1407 FILLER_0_13_332
*1408 FILLER_0_13_51
*1409 FILLER_0_13_55
*1410 FILLER_0_13_68
*1411 FILLER_0_13_85
*1412 FILLER_0_13_93
*1413 FILLER_0_14_111
*1414 FILLER_0_14_134
*1415 FILLER_0_14_141
*1416 FILLER_0_14_15
*1417 FILLER_0_14_157
*1418 FILLER_0_14_169
*1419 FILLER_0_14_173
*1420 FILLER_0_14_200
*1421 FILLER_0_14_204
*1422 FILLER_0_14_210
*1423 FILLER_0_14_222
*1424 FILLER_0_14_234
*1425 FILLER_0_14_240
*1426 FILLER_0_14_245
*1427 FILLER_0_14_273
*1428 FILLER_0_14_293
*1429 FILLER_0_14_3
*1430 FILLER_0_14_313
*1431 FILLER_0_14_44
*1432 FILLER_0_14_56
*1433 FILLER_0_14_80
*1434 FILLER_0_14_99
*1435 FILLER_0_15_106
*1436 FILLER_0_15_110
*1437 FILLER_0_15_119
*1438 FILLER_0_15_127
*1439 FILLER_0_15_152
*1440 FILLER_0_15_162
*1441 FILLER_0_15_19
*1442 FILLER_0_15_207
*1443 FILLER_0_15_217
*1444 FILLER_0_15_256
*1445 FILLER_0_15_285
*1446 FILLER_0_15_309
*1447 FILLER_0_15_313
*1448 FILLER_0_15_320
*1449 FILLER_0_15_324
*1450 FILLER_0_15_333
*1451 FILLER_0_15_57
*1452 FILLER_0_15_77
*1453 FILLER_0_16_100
*1454 FILLER_0_16_126
*1455 FILLER_0_16_135
*1456 FILLER_0_16_139
*1457 FILLER_0_16_141
*1458 FILLER_0_16_15
*1459 FILLER_0_16_166
*1460 FILLER_0_16_172
*1461 FILLER_0_16_180
*1462 FILLER_0_16_195
*1463 FILLER_0_16_217
*1464 FILLER_0_16_239
*1465 FILLER_0_16_251
*1466 FILLER_0_16_264
*1467 FILLER_0_16_27
*1468 FILLER_0_16_270
*1469 FILLER_0_16_274
*1470 FILLER_0_16_288
*1471 FILLER_0_16_292
*1472 FILLER_0_16_299
*1473 FILLER_0_16_3
*1474 FILLER_0_16_307
*1475 FILLER_0_16_330
*1476 FILLER_0_16_334
*1477 FILLER_0_16_55
*1478 FILLER_0_16_81
*1479 FILLER_0_16_85
*1480 FILLER_0_16_96
*1481 FILLER_0_17_106
*1482 FILLER_0_17_119
*1483 FILLER_0_17_132
*1484 FILLER_0_17_154
*1485 FILLER_0_17_172
*1486 FILLER_0_17_195
*1487 FILLER_0_17_222
*1488 FILLER_0_17_245
*1489 FILLER_0_17_252
*1490 FILLER_0_17_275
*1491 FILLER_0_17_279
*1492 FILLER_0_17_28
*1493 FILLER_0_17_290
*1494 FILLER_0_17_41
*1495 FILLER_0_17_54
*1496 FILLER_0_17_57
*1497 FILLER_0_17_69
*1498 FILLER_0_17_81
*1499 FILLER_0_17_85
*1500 FILLER_0_17_94
*1501 FILLER_0_18_109
*1502 FILLER_0_18_141
*1503 FILLER_0_18_15
*1504 FILLER_0_18_150
*1505 FILLER_0_18_195
*1506 FILLER_0_18_218
*1507 FILLER_0_18_27
*1508 FILLER_0_18_278
*1509 FILLER_0_18_3
*1510 FILLER_0_18_304
*1511 FILLER_0_18_309
*1512 FILLER_0_18_334
*1513 FILLER_0_18_34
*1514 FILLER_0_18_46
*1515 FILLER_0_18_69
*1516 FILLER_0_18_83
*1517 FILLER_0_18_92
*1518 FILLER_0_18_98
*1519 FILLER_0_19_11
*1520 FILLER_0_19_111
*1521 FILLER_0_19_118
*1522 FILLER_0_19_138
*1523 FILLER_0_19_146
*1524 FILLER_0_19_153
*1525 FILLER_0_19_159
*1526 FILLER_0_19_167
*1527 FILLER_0_19_169
*1528 FILLER_0_19_203
*1529 FILLER_0_19_220
*1530 FILLER_0_19_236
*1531 FILLER_0_19_264
*1532 FILLER_0_19_272
*1533 FILLER_0_19_281
*1534 FILLER_0_19_285
*1535 FILLER_0_19_291
*1536 FILLER_0_19_299
*1537 FILLER_0_19_3
*1538 FILLER_0_19_316
*1539 FILLER_0_19_330
*1540 FILLER_0_19_334
*1541 FILLER_0_19_34
*1542 FILLER_0_19_52
*1543 FILLER_0_19_70
*1544 FILLER_0_19_74
*1545 FILLER_0_19_87
*1546 FILLER_0_1_129
*1547 FILLER_0_1_15
*1548 FILLER_0_1_158
*1549 FILLER_0_1_166
*1550 FILLER_0_1_169
*1551 FILLER_0_1_181
*1552 FILLER_0_1_193
*1553 FILLER_0_1_205
*1554 FILLER_0_1_214
*1555 FILLER_0_1_268
*1556 FILLER_0_1_27
*1557 FILLER_0_1_278
*1558 FILLER_0_1_281
*1559 FILLER_0_1_3
*1560 FILLER_0_1_302
*1561 FILLER_0_1_314
*1562 FILLER_0_1_326
*1563 FILLER_0_1_334
*1564 FILLER_0_1_39
*1565 FILLER_0_1_51
*1566 FILLER_0_1_55
*1567 FILLER_0_1_57
*1568 FILLER_0_1_65
*1569 FILLER_0_1_74
*1570 FILLER_0_1_91
*1571 FILLER_0_1_98
*1572 FILLER_0_20_110
*1573 FILLER_0_20_114
*1574 FILLER_0_20_122
*1575 FILLER_0_20_157
*1576 FILLER_0_20_169
*1577 FILLER_0_20_190
*1578 FILLER_0_20_218
*1579 FILLER_0_20_230
*1580 FILLER_0_20_234
*1581 FILLER_0_20_256
*1582 FILLER_0_20_27
*1583 FILLER_0_20_286
*1584 FILLER_0_20_297
*1585 FILLER_0_20_36
*1586 FILLER_0_20_49
*1587 FILLER_0_20_64
*1588 FILLER_0_20_81
*1589 FILLER_0_20_85
*1590 FILLER_0_20_89
*1591 FILLER_0_21_100
*1592 FILLER_0_21_129
*1593 FILLER_0_21_15
*1594 FILLER_0_21_154
*1595 FILLER_0_21_166
*1596 FILLER_0_21_222
*1597 FILLER_0_21_225
*1598 FILLER_0_21_237
*1599 FILLER_0_21_24
*1600 FILLER_0_21_241
*1601 FILLER_0_21_262
*1602 FILLER_0_21_274
*1603 FILLER_0_21_281
*1604 FILLER_0_21_285
*1605 FILLER_0_21_3
*1606 FILLER_0_21_314
*1607 FILLER_0_21_32
*1608 FILLER_0_21_333
*1609 FILLER_0_21_36
*1610 FILLER_0_21_54
*1611 FILLER_0_21_57
*1612 FILLER_0_21_69
*1613 FILLER_0_21_73
*1614 FILLER_0_21_91
*1615 FILLER_0_22_104
*1616 FILLER_0_22_128
*1617 FILLER_0_22_156
*1618 FILLER_0_22_251
*1619 FILLER_0_22_253
*1620 FILLER_0_22_26
*1621 FILLER_0_22_262
*1622 FILLER_0_22_269
*1623 FILLER_0_22_275
*1624 FILLER_0_22_43
*1625 FILLER_0_22_61
*1626 FILLER_0_22_70
*1627 FILLER_0_22_82
*1628 FILLER_0_22_85
*1629 FILLER_0_22_97
*1630 FILLER_0_23_108
*1631 FILLER_0_23_11
*1632 FILLER_0_23_124
*1633 FILLER_0_23_137
*1634 FILLER_0_23_169
*1635 FILLER_0_23_225
*1636 FILLER_0_23_246
*1637 FILLER_0_23_254
*1638 FILLER_0_23_281
*1639 FILLER_0_23_293
*1640 FILLER_0_23_3
*1641 FILLER_0_23_319
*1642 FILLER_0_23_325
*1643 FILLER_0_23_34
*1644 FILLER_0_23_43
*1645 FILLER_0_23_55
*1646 FILLER_0_23_61
*1647 FILLER_0_23_78
*1648 FILLER_0_23_89
*1649 FILLER_0_24_102
*1650 FILLER_0_24_152
*1651 FILLER_0_24_160
*1652 FILLER_0_24_192
*1653 FILLER_0_24_197
*1654 FILLER_0_24_212
*1655 FILLER_0_24_23
*1656 FILLER_0_24_251
*1657 FILLER_0_24_253
*1658 FILLER_0_24_265
*1659 FILLER_0_24_27
*1660 FILLER_0_24_271
*1661 FILLER_0_24_29
*1662 FILLER_0_24_304
*1663 FILLER_0_24_309
*1664 FILLER_0_24_58
*1665 FILLER_0_24_65
*1666 FILLER_0_24_82
*1667 FILLER_0_24_90
*1668 FILLER_0_25_111
*1669 FILLER_0_25_113
*1670 FILLER_0_25_117
*1671 FILLER_0_25_126
*1672 FILLER_0_25_153
*1673 FILLER_0_25_165
*1674 FILLER_0_25_176
*1675 FILLER_0_25_215
*1676 FILLER_0_25_264
*1677 FILLER_0_25_27
*1678 FILLER_0_25_3
*1679 FILLER_0_25_310
*1680 FILLER_0_25_42
*1681 FILLER_0_25_57
*1682 FILLER_0_25_67
*1683 FILLER_0_25_91
*1684 FILLER_0_26_108
*1685 FILLER_0_26_116
*1686 FILLER_0_26_130
*1687 FILLER_0_26_138
*1688 FILLER_0_26_157
*1689 FILLER_0_26_163
*1690 FILLER_0_26_182
*1691 FILLER_0_26_193
*1692 FILLER_0_26_206
*1693 FILLER_0_26_23
*1694 FILLER_0_26_239
*1695 FILLER_0_26_250
*1696 FILLER_0_26_27
*1697 FILLER_0_26_276
*1698 FILLER_0_26_289
*1699 FILLER_0_26_29
*1700 FILLER_0_26_307
*1701 FILLER_0_26_313
*1702 FILLER_0_26_40
*1703 FILLER_0_26_46
*1704 FILLER_0_26_55
*1705 FILLER_0_26_59
*1706 FILLER_0_26_69
*1707 FILLER_0_26_76
*1708 FILLER_0_26_94
*1709 FILLER_0_26_98
*1710 FILLER_0_27_109
*1711 FILLER_0_27_11
*1712 FILLER_0_27_118
*1713 FILLER_0_27_122
*1714 FILLER_0_27_135
*1715 FILLER_0_27_166
*1716 FILLER_0_27_169
*1717 FILLER_0_27_190
*1718 FILLER_0_27_202
*1719 FILLER_0_27_220
*1720 FILLER_0_27_267
*1721 FILLER_0_27_3
*1722 FILLER_0_27_313
*1723 FILLER_0_27_333
*1724 FILLER_0_27_51
*1725 FILLER_0_27_55
*1726 FILLER_0_27_76
*1727 FILLER_0_27_85
*1728 FILLER_0_28_110
*1729 FILLER_0_28_118
*1730 FILLER_0_28_135
*1731 FILLER_0_28_153
*1732 FILLER_0_28_178
*1733 FILLER_0_28_183
*1734 FILLER_0_28_195
*1735 FILLER_0_28_197
*1736 FILLER_0_28_230
*1737 FILLER_0_28_259
*1738 FILLER_0_28_27
*1739 FILLER_0_28_277
*1740 FILLER_0_28_3
*1741 FILLER_0_28_307
*1742 FILLER_0_28_320
*1743 FILLER_0_28_326
*1744 FILLER_0_28_35
*1745 FILLER_0_28_69
*1746 FILLER_0_28_73
*1747 FILLER_0_28_98
*1748 FILLER_0_29_104
*1749 FILLER_0_29_113
*1750 FILLER_0_29_169
*1751 FILLER_0_29_212
*1752 FILLER_0_29_239
*1753 FILLER_0_29_272
*1754 FILLER_0_29_298
*1755 FILLER_0_29_30
*1756 FILLER_0_29_310
*1757 FILLER_0_29_37
*1758 FILLER_0_29_57
*1759 FILLER_0_29_65
*1760 FILLER_0_29_80
*1761 FILLER_0_29_94
*1762 FILLER_0_2_104
*1763 FILLER_0_2_118
*1764 FILLER_0_2_139
*1765 FILLER_0_2_141
*1766 FILLER_0_2_15
*1767 FILLER_0_2_153
*1768 FILLER_0_2_163
*1769 FILLER_0_2_171
*1770 FILLER_0_2_182
*1771 FILLER_0_2_194
*1772 FILLER_0_2_242
*1773 FILLER_0_2_27
*1774 FILLER_0_2_278