*SPEF "ieee 1481-1999"
*DESIGN "tt_um_spi_pwm_djuara"
*DATE "11:11:11 Fri 11 11, 1111"
*VENDOR "OpenRCX"
*PROGRAM "Parallel Extraction"
*VERSION "1.0"
*DESIGN_FLOW "NAME_SCOPE LOCAL" "PIN_CAP NONE"
*DIVIDER /
*DELIMITER :
*BUS_DELIMITER []
*T_UNIT 1 NS
*C_UNIT 1 PF
*R_UNIT 1 OHM
*L_UNIT 1 HENRY

*NAME_MAP
*3 clk
*4 ena
*5 rst_n
*6 ui_in[0]
*7 ui_in[1]
*8 ui_in[2]
*9 ui_in[3]
*10 ui_in[4]
*11 ui_in[5]
*12 ui_in[6]
*13 ui_in[7]
*14 uio_in[0]
*15 uio_in[1]
*16 uio_in[2]
*17 uio_in[3]
*18 uio_in[4]
*19 uio_in[5]
*20 uio_in[6]
*21 uio_in[7]
*22 uio_oe[0]
*23 uio_oe[1]
*24 uio_oe[2]
*25 uio_oe[3]
*26 uio_oe[4]
*27 uio_oe[5]
*28 uio_oe[6]
*29 uio_oe[7]
*30 uio_out[0]
*31 uio_out[1]
*32 uio_out[2]
*33 uio_out[3]
*34 uio_out[4]
*35 uio_out[5]
*36 uio_out[6]
*37 uio_out[7]
*38 uo_out[0]
*39 uo_out[1]
*40 uo_out[2]
*41 net37
*42 net38
*43 net39
*44 net40
*45 net41
*46 _0000_
*47 _0001_
*48 _0002_
*49 _0003_
*50 _0004_
*51 _0005_
*52 _0006_
*53 _0007_
*54 _0008_
*55 _0009_
*56 _0010_
*57 _0011_
*58 _0012_
*59 _0013_
*60 _0014_
*61 _0015_
*62 _0016_
*63 _0017_
*64 _0018_
*65 _0019_
*66 _0020_
*67 _0021_
*68 _0022_
*69 _0023_
*70 _0024_
*71 _0025_
*72 _0026_
*73 _0027_
*74 _0028_
*75 _0029_
*76 _0030_
*77 _0031_
*78 _0032_
*79 _0033_
*80 _0034_
*81 _0035_
*82 _0036_
*83 _0037_
*84 _0038_
*85 _0039_
*86 _0040_
*87 _0041_
*88 _0042_
*89 _0043_
*90 _0044_
*91 _0045_
*92 _0046_
*93 _0047_
*94 _0048_
*95 _0049_
*96 _0050_
*97 _0051_
*98 _0052_
*99 _0053_
*100 _0054_
*101 _0055_
*102 _0056_
*103 _0057_
*104 _0058_
*105 _0059_
*106 _0060_
*107 _0061_
*108 _0062_
*109 _0063_
*110 _0064_
*111 _0065_
*112 _0066_
*113 _0067_
*114 _0068_
*115 _0069_
*116 _0070_
*117 _0071_
*118 _0072_
*119 _0073_
*120 _0074_
*121 _0075_
*122 _0076_
*123 _0077_
*124 _0078_
*125 _0079_
*126 _0080_
*127 _0081_
*128 _0082_
*129 _0083_
*130 _0084_
*131 _0085_
*132 _0086_
*133 _0087_
*134 _0088_
*135 _0089_
*136 _0090_
*137 _0091_
*138 _0092_
*139 _0093_
*140 _0094_
*141 _0095_
*142 _0096_
*143 _0097_
*144 _0098_
*145 _0099_
*146 _0100_
*147 _0101_
*148 _0102_
*149 _0103_
*150 _0104_
*151 _0105_
*152 _0106_
*153 _0107_
*154 _0108_
*155 _0109_
*156 _0110_
*157 _0111_
*158 _0112_
*159 _0113_
*160 _0114_
*161 _0115_
*162 _0116_
*163 _0117_
*164 _0118_
*165 _0119_
*166 _0120_
*167 _0121_
*168 _0122_
*169 _0123_
*170 _0124_
*171 _0125_
*172 _0126_
*173 _0127_
*174 _0128_
*175 _0129_
*176 _0130_
*177 _0131_
*178 _0132_
*179 _0133_
*180 _0134_
*181 _0135_
*182 _0136_
*183 _0137_
*184 _0138_
*185 _0139_
*186 _0140_
*187 _0141_
*188 _0142_
*189 _0143_
*190 _0144_
*191 _0145_
*192 _0146_
*193 _0147_
*194 _0148_
*195 _0149_
*196 _0150_
*197 _0151_
*198 _0152_
*199 _0153_
*200 _0154_
*201 _0155_
*202 _0156_
*203 _0157_
*204 _0158_
*205 _0159_
*206 _0160_
*207 _0161_
*208 _0162_
*209 _0163_
*210 _0164_
*211 _0165_
*212 _0166_
*213 _0167_
*214 _0168_
*215 _0169_
*216 _0170_
*217 _0171_
*218 _0172_
*219 _0173_
*220 _0174_
*221 _0175_
*222 _0176_
*223 _0177_
*224 _0178_
*225 _0179_
*226 _0180_
*227 _0181_
*228 _0182_
*229 _0183_
*230 _0184_
*231 _0185_
*232 _0186_
*233 _0187_
*234 _0188_
*235 _0189_
*236 _0190_
*237 _0191_
*238 _0192_
*239 _0193_
*240 _0194_
*241 _0195_
*242 _0196_
*243 _0197_
*244 _0198_
*245 _0199_
*246 _0200_
*247 _0201_
*248 _0202_
*249 _0203_
*250 _0204_
*251 _0205_
*252 _0206_
*253 _0207_
*254 _0208_
*255 _0209_
*256 _0210_
*257 _0211_
*258 _0212_
*259 _0213_
*260 _0214_
*261 _0215_
*262 _0216_
*263 _0217_
*264 _0218_
*265 _0219_
*266 _0220_
*267 _0221_
*268 _0222_
*269 _0223_
*270 _0224_
*271 _0225_
*272 _0226_
*273 _0227_
*274 _0228_
*275 _0229_
*276 _0230_
*277 _0231_
*278 _0232_
*279 _0233_
*280 _0234_
*281 _0235_
*282 _0236_
*283 _0237_
*284 _0238_
*285 _0239_
*286 _0240_
*287 _0241_
*288 _0242_
*289 _0243_
*290 _0244_
*291 _0245_
*292 _0246_
*293 _0247_
*294 _0248_
*295 _0249_
*296 _0250_
*297 _0251_
*298 _0252_
*299 _0253_
*300 _0254_
*301 _0255_
*302 _0256_
*303 _0257_
*304 _0258_
*305 _0259_
*306 _0260_
*307 _0261_
*308 _0262_
*309 _0263_
*310 _0264_
*311 _0265_
*312 _0266_
*313 _0267_
*314 _0268_
*315 _0269_
*316 _0270_
*317 _0271_
*318 _0272_
*319 _0273_
*320 _0274_
*321 _0275_
*322 _0276_
*323 _0277_
*324 _0278_
*325 _0279_
*326 _0280_
*327 _0281_
*328 _0282_
*329 _0283_
*330 _0284_
*331 _0285_
*332 _0286_
*333 _0287_
*334 _0288_
*335 _0289_
*336 _0290_
*337 _0291_
*338 _0292_
*339 _0293_
*340 _0294_
*341 _0295_
*342 _0296_
*343 _0297_
*344 _0298_
*345 _0299_
*346 _0300_
*347 _0301_
*348 _0302_
*349 _0303_
*350 _0304_
*351 _0305_
*352 _0306_
*353 _0307_
*354 _0308_
*355 _0309_
*356 _0310_
*357 _0311_
*358 _0312_
*359 _0313_
*360 _0314_
*361 _0315_
*362 _0316_
*363 _0317_
*364 _0318_
*365 _0319_
*366 _0320_
*367 _0321_
*368 _0322_
*369 _0323_
*370 _0324_
*371 _0325_
*372 _0326_
*373 _0327_
*374 _0328_
*375 _0329_
*376 _0330_
*377 _0331_
*378 _0332_
*379 _0333_
*380 _0334_
*381 _0335_
*382 _0336_
*383 _0337_
*384 _0338_
*385 _0339_
*386 _0340_
*387 _0341_
*388 _0342_
*389 _0343_
*390 _0344_
*391 _0345_
*392 _0346_
*393 _0347_
*394 _0348_
*395 _0349_
*396 _0350_
*397 _0351_
*398 _0352_
*399 _0353_
*400 _0354_
*401 _0355_
*402 _0356_
*403 _0357_
*404 _0358_
*405 _0359_
*406 _0360_
*407 _0361_
*408 _0362_
*409 _0363_
*410 _0364_
*411 _0365_
*412 _0366_
*413 _0367_
*414 _0368_
*415 _0369_
*416 _0370_
*417 _0371_
*418 _0372_
*419 _0373_
*420 _0374_
*421 _0375_
*422 _0376_
*423 _0377_
*424 _0378_
*425 _0379_
*426 _0380_
*427 _0381_
*428 _0382_
*429 _0383_
*430 _0384_
*431 _0385_
*432 _0386_
*433 _0387_
*434 _0388_
*435 _0389_
*436 _0390_
*437 _0391_
*438 _0392_
*439 _0393_
*440 _0394_
*441 _0395_
*442 _0396_
*443 _0397_
*444 _0398_
*445 _0399_
*446 _0400_
*447 _0401_
*448 _0402_
*449 _0403_
*450 _0404_
*451 _0405_
*452 _0406_
*453 _0407_
*454 _0408_
*455 _0409_
*456 _0410_
*457 _0411_
*458 _0412_
*459 _0413_
*460 _0414_
*461 _0415_
*462 _0416_
*463 _0417_
*464 _0418_
*465 _0419_
*466 _0420_
*467 _0421_
*468 _0422_
*469 _0423_
*470 _0424_
*471 _0425_
*472 _0426_
*473 _0427_
*474 _0428_
*475 _0429_
*476 _0430_
*477 _0431_
*478 _0432_
*479 _0433_
*480 _0434_
*481 _0435_
*482 _0436_
*483 _0437_
*484 _0438_
*485 _0439_
*486 _0440_
*487 _0441_
*488 _0442_
*489 _0443_
*490 _0444_
*491 _0445_
*492 _0446_
*493 _0447_
*494 _0448_
*495 _0449_
*496 _0450_
*497 _0451_
*498 _0452_
*499 _0453_
*500 _0454_
*501 _0455_
*502 _0456_
*503 _0457_
*504 _0458_
*505 _0459_
*506 _0460_
*507 _0461_
*508 _0462_
*509 _0463_
*510 _0464_
*511 _0465_
*512 _0466_
*513 _0467_
*514 _0468_
*515 _0469_
*516 _0470_
*517 _0471_
*518 _0472_
*519 _0473_
*520 _0474_
*521 _0475_
*522 _0476_
*523 _0477_
*524 _0478_
*525 _0479_
*526 _0480_
*527 _0481_
*528 _0482_
*529 _0483_
*530 _0484_
*531 _0485_
*532 _0486_
*533 _0487_
*534 _0488_
*535 _0489_
*536 _0490_
*537 _0491_
*538 _0492_
*539 _0493_
*540 _0494_
*541 _0495_
*542 _0496_
*543 _0497_
*544 _0498_
*545 _0499_
*546 _0500_
*547 _0501_
*548 _0502_
*549 _0503_
*550 _0504_
*551 _0505_
*552 _0506_
*553 _0507_
*554 _0508_
*555 _0509_
*556 _0510_
*557 _0511_
*558 _0512_
*559 _0513_
*560 _0514_
*561 _0515_
*562 _0516_
*563 _0517_
*564 _0518_
*565 _0519_
*566 _0520_
*567 _0521_
*568 _0522_
*569 _0523_
*570 _0524_
*571 _0525_
*572 _0526_
*573 _0527_
*574 _0528_
*575 _0529_
*576 _0530_
*577 _0531_
*578 _0532_
*579 _0533_
*580 _0534_
*581 _0535_
*582 _0536_
*583 _0537_
*584 _0538_
*585 _0539_
*586 _0540_
*587 _0541_
*588 _0542_
*589 _0543_
*590 _0544_
*591 _0545_
*592 _0546_
*593 _0547_
*594 _0548_
*595 _0549_
*596 _0550_
*597 _0551_
*598 _0552_
*599 _0553_
*600 _0554_
*601 _0555_
*602 _0556_
*603 _0557_
*604 _0558_
*605 _0559_
*606 _0560_
*607 _0561_
*608 _0562_
*609 _0563_
*610 _0564_
*611 _0565_
*612 _0566_
*613 _0567_
*614 _0568_
*615 _0569_
*616 _0570_
*617 _0571_
*618 _0572_
*619 _0573_
*620 _0574_
*621 _0575_
*622 _0576_
*623 _0577_
*624 _0578_
*625 _0579_
*626 _0580_
*627 _0581_
*628 _0582_
*629 _0583_
*630 _0584_
*631 _0585_
*632 _0586_
*633 _0587_
*634 _0588_
*635 _0589_
*636 _0590_
*637 _0591_
*638 _0592_
*639 _0593_
*640 _0594_
*641 _0595_
*642 _0596_
*643 _0597_
*644 _0598_
*645 _0599_
*646 _0600_
*647 _0601_
*648 _0602_
*649 _0603_
*650 _0604_
*651 _0605_
*652 _0606_
*653 _0607_
*654 _0608_
*655 _0609_
*656 _0610_
*657 _0611_
*658 _0612_
*659 _0613_
*660 _0614_
*661 _0615_
*662 _0616_
*663 _0617_
*664 _0618_
*665 _0619_
*666 _0620_
*667 _0621_
*668 _0622_
*669 _0623_
*670 _0624_
*671 _0625_
*672 _0626_
*673 _0627_
*674 _0628_
*675 _0629_
*676 _0630_
*677 _0631_
*678 _0632_
*679 _0633_
*680 _0634_
*681 _0635_
*682 _0636_
*683 _0637_
*684 _0638_
*685 _0639_
*686 _0640_
*687 _0641_
*688 _0642_
*689 _0643_
*690 _0644_
*691 _0645_
*692 _0646_
*693 _0647_
*694 _0648_
*695 _0649_
*696 _0650_
*697 _0651_
*698 _0652_
*699 _0653_
*700 _0654_
*701 _0655_
*702 _0656_
*703 _0657_
*704 _0658_
*705 _0659_
*706 _0660_
*707 _0661_
*708 _0662_
*709 _0663_
*710 _0664_
*711 _0665_
*712 _0666_
*713 _0667_
*714 _0668_
*715 _0669_
*716 _0670_
*717 _0671_
*718 clknet_0_clk
*719 clknet_3_0__leaf_clk
*720 clknet_3_1__leaf_clk
*721 clknet_3_2__leaf_clk
*722 clknet_3_3__leaf_clk
*723 clknet_3_4__leaf_clk
*724 clknet_3_5__leaf_clk
*725 clknet_3_6__leaf_clk
*726 clknet_3_7__leaf_clk
*727 data_wr_z1\[0\]
*728 data_wr_z1\[1\]
*729 data_wr_z1\[2\]
*730 data_wr_z1\[3\]
*731 data_wr_z1\[4\]
*732 data_wr_z1\[5\]
*733 data_wr_z1\[6\]
*734 data_wr_z1\[7\]
*735 dev_regs\[0\]\[0\]
*736 dev_regs\[0\]\[1\]
*737 dev_regs\[0\]\[2\]
*738 dev_regs\[0\]\[3\]
*739 dev_regs\[0\]\[4\]
*740 dev_regs\[0\]\[5\]
*741 dev_regs\[0\]\[6\]
*742 dev_regs\[0\]\[7\]
*743 dev_regs\[1\]\[0\]
*744 dev_regs\[1\]\[1\]
*745 dev_regs\[1\]\[2\]
*746 dev_regs\[1\]\[3\]
*747 dev_regs\[1\]\[4\]
*748 dev_regs\[1\]\[5\]
*749 dev_regs\[1\]\[6\]
*750 dev_regs\[1\]\[7\]
*751 net1
*752 net10
*753 net11
*754 net12
*755 net13
*756 net14
*757 net15
*758 net16
*759 net17
*760 net18
*761 net19
*762 net2
*763 net20
*764 net21
*765 net22
*766 net23
*767 net24
*768 net25
*769 net26
*770 net27
*771 net28
*772 net29
*773 net3
*774 net30
*775 net31
*776 net32
*777 net33
*778 net34
*779 net35
*780 net36
*781 net4
*782 net42
*783 net43
*784 net44
*785 net45
*786 net46
*787 net47
*788 net48
*789 net49
*790 net5
*791 net50
*792 net51
*793 net52
*794 net53
*795 net54
*796 net55
*797 net56
*798 net57
*799 net58
*800 net59
*801 net6
*802 net60
*803 net61
*804 net62
*805 net63
*806 net64
*807 net65
*808 net66
*809 net7
*810 net8
*811 net9
*812 pwm_inst\.counter\[0\]
*813 pwm_inst\.counter\[10\]
*814 pwm_inst\.counter\[11\]
*815 pwm_inst\.counter\[12\]
*816 pwm_inst\.counter\[13\]
*817 pwm_inst\.counter\[14\]
*818 pwm_inst\.counter\[15\]
*819 pwm_inst\.counter\[1\]
*820 pwm_inst\.counter\[2\]
*821 pwm_inst\.counter\[3\]
*822 pwm_inst\.counter\[4\]
*823 pwm_inst\.counter\[5\]
*824 pwm_inst\.counter\[6\]
*825 pwm_inst\.counter\[7\]
*826 pwm_inst\.counter\[8\]
*827 pwm_inst\.counter\[9\]
*828 pwm_inst\.cycles_freq\[0\]
*829 pwm_inst\.cycles_freq\[10\]
*830 pwm_inst\.cycles_freq\[11\]
*831 pwm_inst\.cycles_freq\[12\]
*832 pwm_inst\.cycles_freq\[13\]
*833 pwm_inst\.cycles_freq\[14\]
*834 pwm_inst\.cycles_freq\[15\]
*835 pwm_inst\.cycles_freq\[1\]
*836 pwm_inst\.cycles_freq\[2\]
*837 pwm_inst\.cycles_freq\[3\]
*838 pwm_inst\.cycles_freq\[4\]
*839 pwm_inst\.cycles_freq\[5\]
*840 pwm_inst\.cycles_freq\[6\]
*841 pwm_inst\.cycles_freq\[7\]
*842 pwm_inst\.cycles_freq\[8\]
*843 pwm_inst\.cycles_freq\[9\]
*844 pwm_inst\.cycles_high\[0\]
*845 pwm_inst\.cycles_high\[10\]
*846 pwm_inst\.cycles_high\[11\]
*847 pwm_inst\.cycles_high\[12\]
*848 pwm_inst\.cycles_high\[13\]
*849 pwm_inst\.cycles_high\[14\]
*850 pwm_inst\.cycles_high\[15\]
*851 pwm_inst\.cycles_high\[1\]
*852 pwm_inst\.cycles_high\[2\]
*853 pwm_inst\.cycles_high\[3\]
*854 pwm_inst\.cycles_high\[4\]
*855 pwm_inst\.cycles_high\[5\]
*856 pwm_inst\.cycles_high\[6\]
*857 pwm_inst\.cycles_high\[7\]
*858 pwm_inst\.cycles_high\[8\]
*859 pwm_inst\.cycles_high\[9\]
*860 pwm_inst\.pwm
*861 spi_own_clock_ins\.addr_reg\[0\]
*862 spi_own_clock_ins\.addr_reg\[1\]
*863 spi_own_clock_ins\.addr_reg\[2\]
*864 spi_own_clock_ins\.data_rd\[0\]
*865 spi_own_clock_ins\.data_rd\[1\]
*866 spi_own_clock_ins\.data_rd\[2\]
*867 spi_own_clock_ins\.data_rd\[3\]
*868 spi_own_clock_ins\.data_rd\[4\]
*869 spi_own_clock_ins\.data_rd\[5\]
*870 spi_own_clock_ins\.data_rd\[6\]
*871 spi_own_clock_ins\.data_rd\[7\]
*872 spi_own_clock_ins\.data_rd_z1\[0\]
*873 spi_own_clock_ins\.data_rd_z1\[1\]
*874 spi_own_clock_ins\.data_rd_z1\[2\]
*875 spi_own_clock_ins\.data_rd_z1\[3\]
*876 spi_own_clock_ins\.data_rd_z1\[4\]
*877 spi_own_clock_ins\.data_rd_z1\[5\]
*878 spi_own_clock_ins\.data_rd_z1\[6\]
*879 spi_own_clock_ins\.data_rd_z1\[7\]
*880 spi_own_clock_ins\.index\[0\]
*881 spi_own_clock_ins\.index\[1\]
*882 spi_own_clock_ins\.index\[2\]
*883 spi_own_clock_ins\.index\[3\]
*884 spi_own_clock_ins\.miso
*885 spi_own_clock_ins\.spi_data_reg\[0\]
*886 spi_own_clock_ins\.spi_data_reg\[1\]
*887 spi_own_clock_ins\.spi_data_reg\[2\]
*888 spi_own_clock_ins\.spi_data_reg\[3\]
*889 spi_own_clock_ins\.spi_data_reg\[4\]
*890 spi_own_clock_ins\.spi_data_reg\[5\]
*891 spi_own_clock_ins\.spi_data_reg\[6\]
*892 spi_own_clock_ins\.spi_data_reg\[7\]
*893 spi_own_clock_ins\.spi_state\[0\]
*894 spi_own_clock_ins\.spi_state\[1\]
*895 spi_own_clock_ins\.spi_state\[2\]
*896 spi_own_clock_ins\.spi_state\[3\]
*897 spi_sampled_ins\.addr_reg\[0\]
*898 spi_sampled_ins\.addr_reg\[1\]
*899 spi_sampled_ins\.addr_reg\[2\]
*900 spi_sampled_ins\.index\[0\]
*901 spi_sampled_ins\.index\[1\]
*902 spi_sampled_ins\.index\[2\]
*903 spi_sampled_ins\.index\[3\]
*904 spi_sampled_ins\.miso
*905 spi_sampled_ins\.neg_edge_det\.signal_z1
*906 spi_sampled_ins\.spi_data_reg\[0\]
*907 spi_sampled_ins\.spi_data_reg\[1\]
*908 spi_sampled_ins\.spi_data_reg\[2\]
*909 spi_sampled_ins\.spi_data_reg\[3\]
*910 spi_sampled_ins\.spi_data_reg\[4\]
*911 spi_sampled_ins\.spi_data_reg\[5\]
*912 spi_sampled_ins\.spi_data_reg\[6\]
*913 spi_sampled_ins\.spi_data_reg\[7\]
*914 spi_sampled_ins\.spi_state\[0\]
*915 spi_sampled_ins\.spi_state\[1\]
*916 ANTENNA_1
*917 FILLER_0_0_109
*918 FILLER_0_0_113
*919 FILLER_0_0_125
*920 FILLER_0_0_137
*921 FILLER_0_0_141
*922 FILLER_0_0_15
*923 FILLER_0_0_153
*924 FILLER_0_0_165
*925 FILLER_0_0_169
*926 FILLER_0_0_181
*927 FILLER_0_0_185
*928 FILLER_0_0_189
*929 FILLER_0_0_194
*930 FILLER_0_0_197
*931 FILLER_0_0_204
*932 FILLER_0_0_212
*933 FILLER_0_0_216
*934 FILLER_0_0_228
*935 FILLER_0_0_234
*936 FILLER_0_0_238
*937 FILLER_0_0_250
*938 FILLER_0_0_253
*939 FILLER_0_0_261
*940 FILLER_0_0_265
*941 FILLER_0_0_27
*942 FILLER_0_0_277
*943 FILLER_0_0_281
*944 FILLER_0_0_29
*945 FILLER_0_0_293
*946 FILLER_0_0_3
*947 FILLER_0_0_305
*948 FILLER_0_0_309
*949 FILLER_0_0_321
*950 FILLER_0_0_333
*951 FILLER_0_0_41
*952 FILLER_0_0_53
*953 FILLER_0_0_57
*954 FILLER_0_0_69
*955 FILLER_0_0_81
*956 FILLER_0_0_85
*957 FILLER_0_0_97
*958 FILLER_0_10_116
*959 FILLER_0_10_128
*960 FILLER_0_10_132
*961 FILLER_0_10_141
*962 FILLER_0_10_15
*963 FILLER_0_10_168
*964 FILLER_0_10_19
*965 FILLER_0_10_195
*966 FILLER_0_10_197
*967 FILLER_0_10_209
*968 FILLER_0_10_253
*969 FILLER_0_10_27
*970 FILLER_0_10_293
*971 FILLER_0_10_3
*972 FILLER_0_10_305
*973 FILLER_0_10_312
*974 FILLER_0_10_32
*975 FILLER_0_10_321
*976 FILLER_0_10_333
*977 FILLER_0_10_44
*978 FILLER_0_10_52
*979 FILLER_0_10_62
*980 FILLER_0_10_68
*981 FILLER_0_10_77
*982 FILLER_0_10_83
*983 FILLER_0_10_88
*984 FILLER_0_10_94
*985 FILLER_0_11_103
*986 FILLER_0_11_110
*987 FILLER_0_11_122
*988 FILLER_0_11_147
*989 FILLER_0_11_15
*990 FILLER_0_11_161
*991 FILLER_0_11_167
*992 FILLER_0_11_175
*993 FILLER_0_11_19
*994 FILLER_0_11_231
*995 FILLER_0_11_248
*996 FILLER_0_11_256
*997 FILLER_0_11_265
*998 FILLER_0_11_276
*999 FILLER_0_11_281
*1000 FILLER_0_11_289
*1001 FILLER_0_11_294
*1002 FILLER_0_11_3
*1003 FILLER_0_11_306
*1004 FILLER_0_11_31
*1005 FILLER_0_11_326
*1006 FILLER_0_11_334
*1007 FILLER_0_11_43
*1008 FILLER_0_11_55
*1009 FILLER_0_11_57
*1010 FILLER_0_11_69
*1011 FILLER_0_11_76
*1012 FILLER_0_11_88
*1013 FILLER_0_12_104
*1014 FILLER_0_12_108
*1015 FILLER_0_12_121
*1016 FILLER_0_12_130
*1017 FILLER_0_12_149
*1018 FILLER_0_12_161
*1019 FILLER_0_12_169
*1020 FILLER_0_12_192
*1021 FILLER_0_12_240
*1022 FILLER_0_12_253
*1023 FILLER_0_12_261
*1024 FILLER_0_12_284
*1025 FILLER_0_12_296
*1026 FILLER_0_12_3
*1027 FILLER_0_12_32
*1028 FILLER_0_12_329
*1029 FILLER_0_12_38
*1030 FILLER_0_12_66
*1031 FILLER_0_12_7
*1032 FILLER_0_12_78
*1033 FILLER_0_12_92
*1034 FILLER_0_13_109
*1035 FILLER_0_13_133
*1036 FILLER_0_13_137
*1037 FILLER_0_13_154
*1038 FILLER_0_13_166
*1039 FILLER_0_13_169
*1040 FILLER_0_13_195
*1041 FILLER_0_13_245
*1042 FILLER_0_13_257
*1043 FILLER_0_13_261
*1044 FILLER_0_13_276
*1045 FILLER_0_13_290
*1046 FILLER_0_13_294
*1047 FILLER_0_13_3
*1048 FILLER_0_13_334
*1049 FILLER_0_13_38
*1050 FILLER_0_13_50
*1051 FILLER_0_13_57
*1052 FILLER_0_13_62
*1053 FILLER_0_13_70
*1054 FILLER_0_13_99
*1055 FILLER_0_14_106
*1056 FILLER_0_14_11
*1057 FILLER_0_14_112
*1058 FILLER_0_14_119
*1059 FILLER_0_14_131
*1060 FILLER_0_14_141
*1061 FILLER_0_14_161
*1062 FILLER_0_14_178
*1063 FILLER_0_14_184
*1064 FILLER_0_14_195
*1065 FILLER_0_14_208
*1066 FILLER_0_14_220
*1067 FILLER_0_14_226
*1068 FILLER_0_14_244
*1069 FILLER_0_14_253
*1070 FILLER_0_14_29
*1071 FILLER_0_14_3
*1072 FILLER_0_14_303
*1073 FILLER_0_14_329
*1074 FILLER_0_14_45
*1075 FILLER_0_14_54
*1076 FILLER_0_14_63
*1077 FILLER_0_14_71
*1078 FILLER_0_14_98
*1079 FILLER_0_15_103
*1080 FILLER_0_15_120
*1081 FILLER_0_15_126
*1082 FILLER_0_15_15
*1083 FILLER_0_15_160
*1084 FILLER_0_15_164
*1085 FILLER_0_15_198
*1086 FILLER_0_15_210
*1087 FILLER_0_15_222
*1088 FILLER_0_15_225
*1089 FILLER_0_15_251
*1090 FILLER_0_15_259
*1091 FILLER_0_15_27
*1092 FILLER_0_15_277
*1093 FILLER_0_15_290
*1094 FILLER_0_15_3
*1095 FILLER_0_15_302
*1096 FILLER_0_15_326
*1097 FILLER_0_15_334
*1098 FILLER_0_15_39
*1099 FILLER_0_15_48
*1100 FILLER_0_15_86
*1101 FILLER_0_15_95
*1102 FILLER_0_16_103
*1103 FILLER_0_16_107
*1104 FILLER_0_16_112
*1105 FILLER_0_16_124
*1106 FILLER_0_16_138
*1107 FILLER_0_16_141
*1108 FILLER_0_16_15
*1109 FILLER_0_16_160
*1110 FILLER_0_16_172
*1111 FILLER_0_16_184
*1112 FILLER_0_16_218
*1113 FILLER_0_16_22
*1114 FILLER_0_16_230
*1115 FILLER_0_16_236
*1116 FILLER_0_16_240
*1117 FILLER_0_16_253
*1118 FILLER_0_16_265
*1119 FILLER_0_16_288
*1120 FILLER_0_16_3
*1121 FILLER_0_16_300
*1122 FILLER_0_16_304
*1123 FILLER_0_16_330
*1124 FILLER_0_16_334
*1125 FILLER_0_16_35
*1126 FILLER_0_16_47
*1127 FILLER_0_16_55
*1128 FILLER_0_16_73
*1129 FILLER_0_16_91
*1130 FILLER_0_17_109
*1131 FILLER_0_17_11
*1132 FILLER_0_17_134
*1133 FILLER_0_17_146
*1134 FILLER_0_17_158
*1135 FILLER_0_17_166
*1136 FILLER_0_17_169
*1137 FILLER_0_17_182
*1138 FILLER_0_17_186
*1139 FILLER_0_17_199
*1140 FILLER_0_17_233
*1141 FILLER_0_17_258
*1142 FILLER_0_17_270
*1143 FILLER_0_17_276
*1144 FILLER_0_17_281
*1145 FILLER_0_17_293
*1146 FILLER_0_17_3
*1147 FILLER_0_17_301
*1148 FILLER_0_17_326
*1149 FILLER_0_17_334
*1150 FILLER_0_17_44
*1151 FILLER_0_17_57
*1152 FILLER_0_17_63
*1153 FILLER_0_17_70
*1154 FILLER_0_17_81
*1155 FILLER_0_17_93
*1156 FILLER_0_18_122
*1157 FILLER_0_18_137
*1158 FILLER_0_18_144
*1159 FILLER_0_18_166
*1160 FILLER_0_18_195
*1161 FILLER_0_18_226
*1162 FILLER_0_18_256
*1163 FILLER_0_18_260
*1164 FILLER_0_18_264
*1165 FILLER_0_18_274
*1166 FILLER_0_18_285
*1167 FILLER_0_18_297
*1168 FILLER_0_18_3
*1169 FILLER_0_18_301
*1170 FILLER_0_18_329
*1171 FILLER_0_18_33
*1172 FILLER_0_18_51
*1173 FILLER_0_18_63
*1174 FILLER_0_18_75
*1175 FILLER_0_18_83
*1176 FILLER_0_18_85
*1177 FILLER_0_18_91
*1178 FILLER_0_19_104
*1179 FILLER_0_19_110
*1180 FILLER_0_19_122
*1181 FILLER_0_19_15
*1182 FILLER_0_19_165
*1183 FILLER_0_19_169
*1184 FILLER_0_19_181
*1185 FILLER_0_19_185
*1186 FILLER_0_19_207
*1187 FILLER_0_19_219
*1188 FILLER_0_19_223
*1189 FILLER_0_19_225
*1190 FILLER_0_19_251
*1191 FILLER_0_19_284
*1192 FILLER_0_19_296
*1193 FILLER_0_19_3
*1194 FILLER_0_19_31
*1195 FILLER_0_19_322
*1196 FILLER_0_19_334
*1197 FILLER_0_19_46
*1198 FILLER_0_19_54
*1199 FILLER_0_19_57
*1200 FILLER_0_19_81
*1201 FILLER_0_19_89
*1202 FILLER_0_19_94
*1203 FILLER_0_1_105
*1204 FILLER_0_1_111
*1205 FILLER_0_1_113
*1206 FILLER_0_1_125
*1207 FILLER_0_1_137
*1208 FILLER_0_1_149
*1209 FILLER_0_1_15
*1210 FILLER_0_1_161
*1211 FILLER_0_1_167
*1212 FILLER_0_1_169
*1213 FILLER_0_1_201
*1214 FILLER_0_1_222
*1215 FILLER_0_1_245
*1216 FILLER_0_1_27
*1217 FILLER_0_1_277
*1218 FILLER_0_1_281
*1219 FILLER_0_1_289
*1220 FILLER_0_1_3
*1221 FILLER_0_1_313
*1222 FILLER_0_1_325
*1223 FILLER_0_1_333
*1224 FILLER_0_1_39
*1225 FILLER_0_1_51
*1226 FILLER_0_1_55
*1227 FILLER_0_1_57
*1228 FILLER_0_1_69
*1229 FILLER_0_1_81
*1230 FILLER_0_1_93
*1231 FILLER_0_20_127
*1232 FILLER_0_20_139
*1233 FILLER_0_20_15
*1234 FILLER_0_20_150
*1235 FILLER_0_20_154
*1236 FILLER_0_20_179
*1237 FILLER_0_20_19
*1238 FILLER_0_20_191
*1239 FILLER_0_20_195
*1240 FILLER_0_20_197
*1241 FILLER_0_20_201
*1242 FILLER_0_20_208
*1243 FILLER_0_20_220
*1244 FILLER_0_20_224
*1245 FILLER_0_20_23
*1246 FILLER_0_20_240
*1247 FILLER_0_20_253
*1248 FILLER_0_20_268
*1249 FILLER_0_20_27
*1250 FILLER_0_20_292
*1251 FILLER_0_20_3
*1252 FILLER_0_20_304
*1253 FILLER_0_20_309
*1254 FILLER_0_20_319
*1255 FILLER_0_20_32
*1256 FILLER_0_20_331
*1257 FILLER_0_20_45
*1258 FILLER_0_20_57
*1259 FILLER_0_20_68
*1260 FILLER_0_21_104
*1261 FILLER_0_21_108
*1262 FILLER_0_21_11
*1263 FILLER_0_21_122
*1264 FILLER_0_21_130
*1265 FILLER_0_21_155
*1266 FILLER_0_21_16
*1267 FILLER_0_21_167
*1268 FILLER_0_21_169
*1269 FILLER_0_21_181
*1270 FILLER_0_21_218
*1271 FILLER_0_21_225
*1272 FILLER_0_21_249
*1273 FILLER_0_21_253
*1274 FILLER_0_21_27
*1275 FILLER_0_21_284
*1276 FILLER_0_21_296
*1277 FILLER_0_21_3
*1278 FILLER_0_21_302
*1279 FILLER_0_21_326
*1280 FILLER_0_21_334
*1281 FILLER_0_21_39
*1282 FILLER_0_21_51
*1283 FILLER_0_21_78
*1284 FILLER_0_21_90
*1285 FILLER_0_21_98
*1286 FILLER_0_22_120
*1287 FILLER_0_22_128
*1288 FILLER_0_22_138
*1289 FILLER_0_22_147
*1290 FILLER_0_22_170
*1291 FILLER_0_22_175
*1292 FILLER_0_22_184
*1293 FILLER_0_22_207
*1294 FILLER_0_22_223
*1295 FILLER_0_22_248
*1296 FILLER_0_22_25
*1297 FILLER_0_22_261
*1298 FILLER_0_22_289
*1299 FILLER_0_22_29
*1300 FILLER_0_22_297
*1301 FILLER_0_22_3
*1302 FILLER_0_22_332
*1303 FILLER_0_22_41
*1304 FILLER_0_22_53
*1305 FILLER_0_22_59
*1306 FILLER_0_22_81
*1307 FILLER_0_22_85
*1308 FILLER_0_22_97
*1309 FILLER_0_23_106
*1310 FILLER_0_23_113
*1311 FILLER_0_23_125
*1312 FILLER_0_23_136
*1313 FILLER_0_23_167
*1314 FILLER_0_23_169
*1315 FILLER_0_23_213
*1316 FILLER_0_23_25
*1317 FILLER_0_23_252
*1318 FILLER_0_23_296
*1319 FILLER_0_23_3
*1320 FILLER_0_23_304
*1321 FILLER_0_23_325
*1322 FILLER_0_23_333
*1323 FILLER_0_23_50
*1324 FILLER_0_23_57
*1325 FILLER_0_23_63
*1326 FILLER_0_23_85
*1327 FILLER_0_23_97
*1328 FILLER_0_24_11
*1329 FILLER_0_24_113
*1330 FILLER_0_24_121
*1331 FILLER_0_24_133
*1332 FILLER_0_24_139
*1333 FILLER_0_24_149
*1334 FILLER_0_24_16
*1335 FILLER_0_24_160
*1336 FILLER_0_24_177
*1337 FILLER_0_24_185
*1338 FILLER_0_24_197
*1339 FILLER_0_24_209
*1340 FILLER_0_24_217
*1341 FILLER_0_24_248
*1342 FILLER_0_24_253
*1343 FILLER_0_24_26
*1344 FILLER_0_24_288
*1345 FILLER_0_24_3
*1346 FILLER_0_24_300
*1347 FILLER_0_24_309
*1348 FILLER_0_24_321
*1349 FILLER_0_24_333
*1350 FILLER_0_24_52
*1351 FILLER_0_24_80
*1352 FILLER_0_24_91
*1353 FILLER_0_25_113
*1354 FILLER_0_25_125
*1355 FILLER_0_25_137
*1356 FILLER_0_25_146
*1357 FILLER_0_25_15
*1358 FILLER_0_25_165
*1359 FILLER_0_25_169
*1360 FILLER_0_25_177
*1361 FILLER_0_25_186
*1362 FILLER_0_25_198
*1363 FILLER_0_25_206
*1364 FILLER_0_25_217
*1365 FILLER_0_25_225
*1366 FILLER_0_25_243
*1367 FILLER_0_25_255
*1368 FILLER_0_25_267
*1369 FILLER_0_25_27
*1370 FILLER_0_25_271
*1371 FILLER_0_25_278
*1372 FILLER_0_25_284
*1373 FILLER_0_25_296
*1374 FILLER_0_25_3
*1375 FILLER_0_25_300
*1376 FILLER_0_25_324
*1377 FILLER_0_25_332
*1378 FILLER_0_25_42
*1379 FILLER_0_25_54
*1380 FILLER_0_25_57
*1381 FILLER_0_25_84
*1382 FILLER_0_25_92
*1383 FILLER_0_25_98
*1384 FILLER_0_26_120
*1385 FILLER_0_26_132
*1386 FILLER_0_26_141
*1387 FILLER_0_26_149
*1388 FILLER_0_26_157
*1389 FILLER_0_26_161
*1390 FILLER_0_26_169
*1391 FILLER_0_26_177
*1392 FILLER_0_26_18
*1393 FILLER_0_26_186
*1394 FILLER_0_26_192
*1395 FILLER_0_26_211
*1396 FILLER_0_26_225
*1397 FILLER_0_26_24
*1398 FILLER_0_26_248
*1399 FILLER_0_26_282
*1400 FILLER_0_26_294
*1401 FILLER_0_26_3
*1402 FILLER_0_26_50
*1403 FILLER_0_26_56
*1404 FILLER_0_26_69
*1405 FILLER_0_26_80
*1406 FILLER_0_26_89
*1407 FILLER_0_26_97
*1408 FILLER_0_27_113
*1409 FILLER_0_27_132
*1410 FILLER_0_27_140
*1411 FILLER_0_27_149
*1412 FILLER_0_27_184
*1413 FILLER_0_27_195
*1414 FILLER_0_27_218
*1415 FILLER_0_27_225
*1416 FILLER_0_27_233
*1417 FILLER_0_27_245
*1418 FILLER_0_27_257
*1419 FILLER_0_27_293
*1420 FILLER_0_27_297
*1421 FILLER_0_27_3
*1422 FILLER_0_27_331
*1423 FILLER_0_27_42
*1424 FILLER_0_27_46
*1425 FILLER_0_27_57
*1426 FILLER_0_27_82
*1427 FILLER_0_27_94
*1428 FILLER_0_28_124
*1429 FILLER_0_28_132
*1430 FILLER_0_28_141
*1431 FILLER_0_28_152
*1432 FILLER_0_28_163
*1433 FILLER_0_28_175
*1434 FILLER_0_28_191
*1435 FILLER_0_28_195
*1436 FILLER_0_28_197
*1437 FILLER_0_28_216
*1438 FILLER_0_28_241
*1439 FILLER_0_28_249
*1440 FILLER_0_28_253
*1441 FILLER_0_28_3
*1442 FILLER_0_28_302
*1443 FILLER_0_28_306
*1444 FILLER_0_28_321
*1445 FILLER_0_28_333
*1446 FILLER_0_28_47
*1447 FILLER_0_28_71
*1448 FILLER_0_28_81
*1449 FILLER_0_28_85
*1450 FILLER_0_28_93
*1451 FILLER_0_29_109
*1452 FILLER_0_29_121
*1453 FILLER_0_29_141
*1454 FILLER_0_29_158
*1455 FILLER_0_29_169
*1456 FILLER_0_29_182
*1457 FILLER_0_29_190
*1458 FILLER_0_29_198
*1459 FILLER_0_29_210
*1460 FILLER_0_29_216
*1461 FILLER_0_29_251
*1462 FILLER_0_29_281
*1463 FILLER_0_29_293
*1464 FILLER_0_29_3
*1465 FILLER_0_29_323
*1466 FILLER_0_29_35
*1467 FILLER_0_29_43
*1468 FILLER_0_29_57
*1469 FILLER_0_29_85
*1470 FILLER_0_2_109
*1471 FILLER_0_2_121
*1472 FILLER_0_2_133
*1473 FILLER_0_2_139
*1474 FILLER_0_2_141
*1475 FILLER_0_2_15
*1476 FILLER_0_2_153
*1477 FILLER_0_2_165
*1478 FILLER_0_2_194
*1479 FILLER_0_2_209
*1480 FILLER_0_2_246
*1481 FILLER_0_2_256
*1482 FILLER_0_2_264
*1483 FILLER_0_2_27
*1484 FILLER_0_2_29
*1485 FILLER_0_2_3
*1486 FILLER_0_2_300
*1487 FILLER_0_2_309
*1488 FILLER_0_2_321
*1489 FILLER_0_2_333
*1490 FILLER_0_2_41
*1491 FILLER_0_2_53
*1492 FILLER_0_2_65
*1493 FILLER_0_2_77
*1494 FILLER_0_2_83
*1495 FILLER_0_2_85
*1496 FILLER_0_2_97
*1497 FILLER_0_30_114
*1498 FILLER_0_30_118
*1499 FILLER_0_30_126
*1500 FILLER_0_30_138
*1501 FILLER_0_30_141
*1502 FILLER_0_30_15
*1503 FILLER_0_30_161
*1504 FILLER_0_30_172
*1505 FILLER_0_30_19
*1506 FILLER_0_30_194
*1507 FILLER_0_30_211
*1508 FILLER_0_30_23
*1509 FILLER_0_30_243
*1510 FILLER_0_30_251
*1511 FILLER_0_30_253
*1512 FILLER_0_30_257
*1513 FILLER_0_30_27
*1514 FILLER_0_30_277
*1515 FILLER_0_30_289
*1516 FILLER_0_30_3
*1517 FILLER_0_30_307
*1518 FILLER_0_30_330
*1519 FILLER_0_30_334
*1520 FILLER_0_30_38
*1521 FILLER_0_30_76
*1522 FILLER_0_31_107
*1523 FILLER_0_31_11
*1524 FILLER_0_31_111
*1525 FILLER_0_31_120
*1526 FILLER_0_31_132
*1527 FILLER_0_31_16
*1528 FILLER_0_31_164
*1529 FILLER_0_31_169
*1530 FILLER_0_31_179
*1531 FILLER_0_31_187
*1532 FILLER_0_31_20
*1533 FILLER_0_31_209
*1534 FILLER_0_31_213
*1535 FILLER_0_31_240
*1536 FILLER_0_31_252
*1537 FILLER_0_31_260
*1538 FILLER_0_31_269
*1539 FILLER_0_31_277
*1540 FILLER_0_31_281
*1541 FILLER_0_31_293
*1542 FILLER_0_31_297
*1543 FILLER_0_31_3
*1544 FILLER_0_31_309
*1545 FILLER_0_31_332
*1546 FILLER_0_31_57
*1547 FILLER_0_31_69
*1548 FILLER_0_31_81
*1549 FILLER_0_32_113
*1550 FILLER_0_32_125
*1551 FILLER_0_32_164
*1552 FILLER_0_32_176
*1553 FILLER_0_32_188
*1554 FILLER_0_32_197
*1555 FILLER_0_32_223
*1556 FILLER_0_32_241
*1557 FILLER_0_32_249
*1558 FILLER_0_32_253
*1559 FILLER_0_32_257
*1560 FILLER_0_32_27
*1561 FILLER_0_32_272
*1562 FILLER_0_32_284
*1563 FILLER_0_32_3
*1564 FILLER_0_32_301
*1565 FILLER_0_32_315
*1566 FILLER_0_32_32
*1567 FILLER_0_32_321
*1568 FILLER_0_32_333
*1569 FILLER_0_32_36
*1570 FILLER_0_32_60
*1571 FILLER_0_32_85
*1572 FILLER_0_33_101
*1573 FILLER_0_33_111
*1574 FILLER_0_33_113
*1575 FILLER_0_33_128
*1576 FILLER_0_33_15
*1577 FILLER_0_33_164
*1578 FILLER_0_33_177
*1579 FILLER_0_33_188
*1580 FILLER_0_33_208
*1581 FILLER_0_33_220
*1582 FILLER_0_33_225
*1583 FILLER_0_33_233
*1584 FILLER_0_33_245
*1585 FILLER_0_33_25
*1586 FILLER_0_33_279
*1587 FILLER_0_33_281
*1588 FILLER_0_33_289
*1589 FILLER_0_33_3
*1590 FILLER_0_33_326
*1591 FILLER_0_33_33
*1592 FILLER_0_33_334
*1593 FILLER_0_33_44
*1594 FILLER_0_33_92
*1595 FILLER_0_34_104
*1596 FILLER_0_34_132
*1597 FILLER_0_34_141
*1598 FILLER_0_34_15
*1599 FILLER_0_34_156
*1600 FILLER_0_34_168
*1601 FILLER_0_34_172
*1602 FILLER_0_34_205
*1603 FILLER_0_34_211
*1604 FILLER_0_34_222
*1605 FILLER_0_34_230
*1606 FILLER_0_34_236
*1607 FILLER_0_34_248
*1608 FILLER_0_34_25
*1609 FILLER_0_34_289
*1610 FILLER_0_34_297
*1611 FILLER_0_34_3
*1612 FILLER_0_34_307
*1613 FILLER_0_34_323
*1614 FILLER_0_34_38
*1615 FILLER_0_34_64
*1616 FILLER_0_34_85
*1617 FILLER_0_34_97
*1618 FILLER_0_35_101
*1619 FILLER_0_35_113
*1620 FILLER_0_35_123
*1621 FILLER_0_35_135
*1622 FILLER_0_35_160
*1623 FILLER_0_35_164
*1624 FILLER_0_35_189
*1625 FILLER_0_35_197
*1626 FILLER_0_35_203
*1627 FILLER_0_35_218
*1628 FILLER_0_35_225
*1629 FILLER_0_35_237
*1630 FILLER_0_35_245
*1631 FILLER_0_35_276
*1632 FILLER_0_35_293
*1633 FILLER_0_35_297
*1634 FILLER_0_35_3
*1635 FILLER_0_35_326
*1636 FILLER_0_35_334
*1637 FILLER_0_35_43
*1638 FILLER_0_35_57
*1639 FILLER_0_35_7
*1640 FILLER_0_35_74
*1641 FILLER_0_35_86
*1642 FILLER_0_36_131
*1643 FILLER_0_36_135
*1644 FILLER_0_36_139
*1645 FILLER_0_36_150
*1646 FILLER_0_36_194
*1647 FILLER_0_36_197
*1648 FILLER_0_36_222
*1649 FILLER_0_36_234
*1650 FILLER_0_36_253
*1651 FILLER_0_36_3
*1652 FILLER_0_36_302
*1653 FILLER_0_36_35
*1654 FILLER_0_36_41
*1655 FILLER_0_36_68
*1656 FILLER_0_36_74
*1657 FILLER_0_37_116
*1658 FILLER_0_37_157
*1659 FILLER_0_37_162
*1660 FILLER_0_37_169
*1661 FILLER_0_37_190
*1662 FILLER_0_37_200
*1663 FILLER_0_37_225
*1664 FILLER_0_37_233
*1665 FILLER_0_37_259
*1666 FILLER_0_37_265