*SPEF "ieee 1481-1999"
*DESIGN "tt_um_spi_pwm_djuara"
*DATE "11:11:11 Fri 11 11, 1111"
*VENDOR "OpenRCX"
*PROGRAM "Parallel Extraction"
*VERSION "1.0"
*DESIGN_FLOW "NAME_SCOPE LOCAL" "PIN_CAP NONE"
*DIVIDER /
*DELIMITER :
*BUS_DELIMITER []
*T_UNIT 1 NS
*C_UNIT 1 PF
*R_UNIT 1 OHM
*L_UNIT 1 HENRY

*NAME_MAP
*3 clk
*4 ena
*5 rst_n
*6 ui_in[0]
*7 ui_in[1]
*8 ui_in[2]
*9 ui_in[3]
*10 ui_in[4]
*11 ui_in[5]
*12 ui_in[6]
*13 ui_in[7]
*14 uio_in[0]
*15 uio_in[1]
*16 uio_in[2]
*17 uio_in[3]
*18 uio_in[4]
*19 uio_in[5]
*20 uio_in[6]
*21 uio_in[7]
*22 net34
*23 net35
*24 net36
*25 net37
*26 net38
*27 net39
*28 net40
*29 net41
*30 net42
*31 net43
*32 net44
*33 net45
*34 net46
*35 net47
*36 net48
*37 net49
*38 uo_out[0]
*39 uo_out[1]
*40 uo_out[2]
*41 net50
*42 net51
*43 net52
*44 net53
*45 net54
*46 _0000_
*47 _0001_
*48 _0002_
*49 _0003_
*50 _0004_
*51 _0005_
*52 _0006_
*53 _0007_
*54 _0008_
*55 _0009_
*56 _0010_
*57 _0011_
*58 _0012_
*59 _0013_
*60 _0014_
*61 _0015_
*62 _0016_
*63 _0017_
*64 _0018_
*65 _0019_
*66 _0020_
*67 _0021_
*68 _0022_
*69 _0023_
*70 _0024_
*71 _0025_
*72 _0026_
*73 _0027_
*74 _0028_
*75 _0029_
*76 _0030_
*77 _0031_
*78 _0032_
*79 _0033_
*80 _0034_
*81 _0035_
*82 _0036_
*83 _0037_
*84 _0038_
*85 _0039_
*86 _0040_
*87 _0041_
*88 _0042_
*89 _0043_
*90 _0044_
*91 _0045_
*92 _0046_
*93 _0047_
*94 _0048_
*95 _0049_
*96 _0050_
*97 _0051_
*98 _0052_
*99 _0053_
*100 _0054_
*101 _0055_
*102 _0056_
*103 _0057_
*104 _0058_
*105 _0059_
*106 _0060_
*107 _0061_
*108 _0062_
*109 _0063_
*110 _0064_
*111 _0065_
*112 _0066_
*113 _0067_
*114 _0068_
*115 _0069_
*116 _0070_
*117 _0071_
*118 _0072_
*119 _0073_
*120 _0074_
*121 _0075_
*122 _0076_
*123 _0077_
*124 _0078_
*125 _0079_
*126 _0080_
*127 _0081_
*128 _0082_
*129 _0083_
*130 _0084_
*131 _0085_
*132 _0086_
*133 _0087_
*134 _0088_
*135 _0089_
*136 _0090_
*137 _0091_
*138 _0092_
*139 _0093_
*140 _0094_
*141 _0095_
*142 _0096_
*143 _0097_
*144 _0098_
*145 _0099_
*146 _0100_
*147 _0101_
*148 _0102_
*149 _0103_
*150 _0104_
*151 _0105_
*152 _0106_
*153 _0107_
*154 _0108_
*155 _0109_
*156 _0110_
*157 _0111_
*158 _0112_
*159 _0113_
*160 _0114_
*161 _0115_
*162 _0116_
*163 _0117_
*164 _0118_
*165 _0119_
*166 _0120_
*167 _0121_
*168 _0122_
*169 _0123_
*170 _0124_
*171 _0125_
*172 _0126_
*173 _0127_
*174 _0128_
*175 _0129_
*176 _0130_
*177 _0131_
*178 _0132_
*179 _0133_
*180 _0134_
*181 _0135_
*182 _0136_
*183 _0137_
*184 _0138_
*185 _0139_
*186 _0140_
*187 _0141_
*188 _0142_
*189 _0143_
*190 _0144_
*191 _0145_
*192 _0146_
*193 _0147_
*194 _0148_
*195 _0149_
*196 _0150_
*197 _0151_
*198 _0152_
*199 _0153_
*200 _0154_
*201 _0155_
*202 _0156_
*203 _0157_
*204 _0158_
*205 _0159_
*206 _0160_
*207 _0161_
*208 _0162_
*209 _0163_
*210 _0164_
*211 _0165_
*212 _0166_
*213 _0167_
*214 _0168_
*215 _0169_
*216 _0170_
*217 _0171_
*218 _0172_
*219 _0173_
*220 _0174_
*221 _0175_
*222 _0176_
*223 _0177_
*224 _0178_
*225 _0179_
*226 _0180_
*227 _0181_
*228 _0182_
*229 _0183_
*230 _0184_
*231 _0185_
*232 _0186_
*233 _0187_
*234 _0188_
*235 _0189_
*236 _0190_
*237 _0191_
*238 _0192_
*239 _0193_
*240 _0194_
*241 _0195_
*242 _0196_
*243 _0197_
*244 _0198_
*245 _0199_
*246 _0200_
*247 _0201_
*248 _0202_
*249 _0203_
*250 _0204_
*251 _0205_
*252 _0206_
*253 _0207_
*254 _0208_
*255 _0209_
*256 _0210_
*257 _0211_
*258 _0212_
*259 _0213_
*260 _0214_
*261 _0215_
*262 _0216_
*263 _0217_
*264 _0218_
*265 _0219_
*266 _0220_
*267 _0221_
*268 _0222_
*269 _0223_
*270 _0224_
*271 _0225_
*272 _0226_
*273 _0227_
*274 _0228_
*275 _0229_
*276 _0230_
*277 _0231_
*278 _0232_
*279 _0233_
*280 _0234_
*281 _0235_
*282 _0236_
*283 _0237_
*284 _0238_
*285 _0239_
*286 _0240_
*287 _0241_
*288 _0242_
*289 _0243_
*290 _0244_
*291 _0245_
*292 _0246_
*293 _0247_
*294 _0248_
*295 _0249_
*296 _0250_
*297 _0251_
*298 _0252_
*299 _0253_
*300 _0254_
*301 _0255_
*302 _0256_
*303 _0257_
*304 _0258_
*305 _0259_
*306 _0260_
*307 _0261_
*308 _0262_
*309 _0263_
*310 _0264_
*311 _0265_
*312 _0266_
*313 _0267_
*314 _0268_
*315 _0269_
*316 _0270_
*317 _0271_
*318 _0272_
*319 _0273_
*320 _0274_
*321 _0275_
*322 _0276_
*323 _0277_
*324 _0278_
*325 _0279_
*326 _0280_
*327 _0281_
*328 _0282_
*329 _0283_
*330 _0284_
*331 _0285_
*332 _0286_
*333 _0287_
*334 _0288_
*335 _0289_
*336 _0290_
*337 _0291_
*338 _0292_
*339 _0293_
*340 _0294_
*341 _0295_
*342 _0296_
*343 _0297_
*344 _0298_
*345 _0299_
*346 _0300_
*347 _0301_
*348 _0302_
*349 _0303_
*350 _0304_
*351 _0305_
*352 _0306_
*353 _0307_
*354 _0308_
*355 _0309_
*356 _0310_
*357 _0311_
*358 _0312_
*359 _0313_
*360 _0314_
*361 _0315_
*362 _0316_
*363 _0317_
*364 _0318_
*365 _0319_
*366 _0320_
*367 _0321_
*368 _0322_
*369 _0323_
*370 _0324_
*371 _0325_
*372 _0326_
*373 _0327_
*374 _0328_
*375 _0329_
*376 _0330_
*377 _0331_
*378 _0332_
*379 _0333_
*380 _0334_
*381 _0335_
*382 _0336_
*383 _0337_
*384 _0338_
*385 _0339_
*386 _0340_
*387 _0341_
*388 _0342_
*389 _0343_
*390 _0344_
*391 _0345_
*392 _0346_
*393 _0347_
*394 _0348_
*395 _0349_
*396 _0350_
*397 _0351_
*398 _0352_
*399 _0353_
*400 _0354_
*401 _0355_
*402 _0356_
*403 _0357_
*404 _0358_
*405 _0359_
*406 _0360_
*407 _0361_
*408 _0362_
*409 _0363_
*410 _0364_
*411 _0365_
*412 _0366_
*413 _0367_
*414 _0368_
*415 _0369_
*416 _0370_
*417 _0371_
*418 _0372_
*419 _0373_
*420 _0374_
*421 _0375_
*422 _0376_
*423 _0377_
*424 _0378_
*425 _0379_
*426 _0380_
*427 _0381_
*428 _0382_
*429 _0383_
*430 _0384_
*431 _0385_
*432 _0386_
*433 _0387_
*434 _0388_
*435 _0389_
*436 _0390_
*437 _0391_
*438 _0392_
*439 _0393_
*440 _0394_
*441 _0395_
*442 _0396_
*443 _0397_
*444 _0398_
*445 _0399_
*446 _0400_
*447 _0401_
*448 _0402_
*449 _0403_
*450 _0404_
*451 _0405_
*452 _0406_
*453 _0407_
*454 _0408_
*455 _0409_
*456 _0410_
*457 _0411_
*458 _0412_
*459 _0413_
*460 _0414_
*461 _0415_
*462 _0416_
*463 _0417_
*464 _0418_
*465 _0419_
*466 _0420_
*467 _0421_
*468 _0422_
*469 _0423_
*470 _0424_
*471 _0425_
*472 _0426_
*473 _0427_
*474 _0428_
*475 _0429_
*476 _0430_
*477 _0431_
*478 _0432_
*479 _0433_
*480 _0434_
*481 _0435_
*482 _0436_
*483 _0437_
*484 _0438_
*485 _0439_
*486 _0440_
*487 _0441_
*488 _0442_
*489 _0443_
*490 _0444_
*491 _0445_
*492 _0446_
*493 _0447_
*494 _0448_
*495 _0449_
*496 _0450_
*497 _0451_
*498 _0452_
*499 _0453_
*500 _0454_
*501 _0455_
*502 _0456_
*503 _0457_
*504 _0458_
*505 _0459_
*506 _0460_
*507 _0461_
*508 _0462_
*509 _0463_
*510 _0464_
*511 _0465_
*512 _0466_
*513 _0467_
*514 _0468_
*515 _0469_
*516 _0470_
*517 _0471_
*518 _0472_
*519 _0473_
*520 _0474_
*521 _0475_
*522 _0476_
*523 _0477_
*524 _0478_
*525 _0479_
*526 _0480_
*527 _0481_
*528 _0482_
*529 _0483_
*530 _0484_
*531 _0485_
*532 _0486_
*533 _0487_
*534 _0488_
*535 _0489_
*536 _0490_
*537 _0491_
*538 _0492_
*539 _0493_
*540 _0494_
*541 _0495_
*542 _0496_
*543 _0497_
*544 _0498_
*545 _0499_
*546 _0500_
*547 _0501_
*548 _0502_
*549 _0503_
*550 _0504_
*551 _0505_
*552 _0506_
*553 _0507_
*554 _0508_
*555 _0509_
*556 _0510_
*557 _0511_
*558 _0512_
*559 _0513_
*560 _0514_
*561 _0515_
*562 _0516_
*563 _0517_
*564 _0518_
*565 _0519_
*566 _0520_
*567 _0521_
*568 _0522_
*569 _0523_
*570 _0524_
*571 _0525_
*572 _0526_
*573 _0527_
*574 _0528_
*575 _0529_
*576 _0530_
*577 _0531_
*578 _0532_
*579 _0533_
*580 _0534_
*581 _0535_
*582 _0536_
*583 _0537_
*584 _0538_
*585 _0539_
*586 _0540_
*587 _0541_
*588 _0542_
*589 _0543_
*590 _0544_
*591 _0545_
*592 _0546_
*593 _0547_
*594 _0548_
*595 _0549_
*596 _0550_
*597 _0551_
*598 _0552_
*599 _0553_
*600 _0554_
*601 _0555_
*602 _0556_
*603 _0557_
*604 _0558_
*605 _0559_
*606 _0560_
*607 _0561_
*608 _0562_
*609 _0563_
*610 _0564_
*611 _0565_
*612 _0566_
*613 _0567_
*614 _0568_
*615 _0569_
*616 _0570_
*617 _0571_
*618 _0572_
*619 _0573_
*620 _0574_
*621 _0575_
*622 _0576_
*623 _0577_
*624 _0578_
*625 _0579_
*626 _0580_
*627 _0581_
*628 _0582_
*629 _0583_
*630 _0584_
*631 _0585_
*632 _0586_
*633 _0587_
*634 _0588_
*635 _0589_
*636 _0590_
*637 _0591_
*638 _0592_
*639 _0593_
*640 _0594_
*641 _0595_
*642 _0596_
*643 _0597_
*644 _0598_
*645 _0599_
*646 _0600_
*647 _0601_
*648 _0602_
*649 _0603_
*650 _0604_
*651 _0605_
*652 _0606_
*653 _0607_
*654 _0608_
*655 _0609_
*656 _0610_
*657 _0611_
*658 _0612_
*659 _0613_
*660 _0614_
*661 _0615_
*662 _0616_
*663 _0617_
*664 _0618_
*665 _0619_
*666 _0620_
*667 _0621_
*668 _0622_
*669 _0623_
*670 _0624_
*671 _0625_
*672 _0626_
*673 _0627_
*674 _0628_
*675 _0629_
*676 _0630_
*677 _0631_
*678 _0632_
*679 _0633_
*680 _0634_
*681 _0635_
*682 _0636_
*683 _0637_
*684 _0638_
*685 _0639_
*686 _0640_
*687 _0641_
*688 _0642_
*689 _0643_
*690 _0644_
*691 _0645_
*692 _0646_
*693 _0647_
*694 _0648_
*695 _0649_
*696 _0650_
*697 _0651_
*698 _0652_
*699 _0653_
*700 _0654_
*701 _0655_
*702 _0656_
*703 _0657_
*704 _0658_
*705 _0659_
*706 _0660_
*707 _0661_
*708 _0662_
*709 _0663_
*710 _0664_
*711 _0665_
*712 _0666_
*713 _0667_
*714 _0668_
*715 _0669_
*716 _0670_
*717 _0671_
*718 _0672_
*719 _0673_
*720 _0674_
*721 _0675_
*722 _0676_
*723 _0677_
*724 _0678_
*725 _0679_
*726 _0680_
*727 _0681_
*728 _0682_
*729 _0683_
*730 _0684_
*731 _0685_
*732 _0686_
*733 _0687_
*734 _0688_
*735 _0689_
*736 _0690_
*737 _0691_
*738 _0692_
*739 _0693_
*740 _0694_
*741 clknet_0_clk
*742 clknet_3_0__leaf_clk
*743 clknet_3_1__leaf_clk
*744 clknet_3_2__leaf_clk
*745 clknet_3_3__leaf_clk
*746 clknet_3_4__leaf_clk
*747 clknet_3_5__leaf_clk
*748 clknet_3_6__leaf_clk
*749 clknet_3_7__leaf_clk
*750 data_wr_z1\[0\]
*751 data_wr_z1\[1\]
*752 data_wr_z1\[2\]
*753 data_wr_z1\[3\]
*754 data_wr_z1\[4\]
*755 data_wr_z1\[5\]
*756 data_wr_z1\[6\]
*757 data_wr_z1\[7\]
*758 dev_regs\[0\]\[0\]
*759 dev_regs\[0\]\[1\]
*760 dev_regs\[0\]\[2\]
*761 dev_regs\[0\]\[3\]
*762 dev_regs\[0\]\[4\]
*763 dev_regs\[0\]\[5\]
*764 dev_regs\[0\]\[6\]
*765 dev_regs\[0\]\[7\]
*766 dev_regs\[1\]\[0\]
*767 dev_regs\[1\]\[1\]
*768 dev_regs\[1\]\[2\]
*769 dev_regs\[1\]\[3\]
*770 dev_regs\[1\]\[4\]
*771 dev_regs\[1\]\[5\]
*772 dev_regs\[1\]\[6\]
*773 dev_regs\[1\]\[7\]
*774 dev_regs\[6\]\[0\]
*775 dev_regs\[6\]\[1\]
*776 dev_regs\[6\]\[2\]
*777 dev_regs\[6\]\[3\]
*778 dev_regs\[6\]\[4\]
*779 dev_regs\[6\]\[5\]
*780 dev_regs\[6\]\[6\]
*781 dev_regs\[6\]\[7\]
*782 dev_regs\[7\]\[0\]
*783 dev_regs\[7\]\[1\]
*784 dev_regs\[7\]\[2\]
*785 dev_regs\[7\]\[3\]
*786 dev_regs\[7\]\[4\]
*787 dev_regs\[7\]\[5\]
*788 dev_regs\[7\]\[6\]
*789 dev_regs\[7\]\[7\]
*790 net1
*791 net10
*792 net11
*793 net12
*794 net13
*795 net14
*796 net15
*797 net16
*798 net17
*799 net18
*800 net19
*801 net2
*802 net20
*803 net21
*804 net22
*805 net23
*806 net24
*807 net25
*808 net26
*809 net27
*810 net28
*811 net29
*812 net3
*813 net30
*814 net31
*815 net32
*816 net33
*817 net4
*818 net5
*819 net55
*820 net56
*821 net57
*822 net58
*823 net59
*824 net6
*825 net60
*826 net61
*827 net62
*828 net63
*829 net64
*830 net65
*831 net66
*832 net67
*833 net68
*834 net69
*835 net7
*836 net70
*837 net71
*838 net72
*839 net73
*840 net8
*841 net9
*842 pwm_inst\.counter\[0\]
*843 pwm_inst\.counter\[10\]
*844 pwm_inst\.counter\[11\]
*845 pwm_inst\.counter\[12\]
*846 pwm_inst\.counter\[13\]
*847 pwm_inst\.counter\[14\]
*848 pwm_inst\.counter\[15\]
*849 pwm_inst\.counter\[1\]
*850 pwm_inst\.counter\[2\]
*851 pwm_inst\.counter\[3\]
*852 pwm_inst\.counter\[4\]
*853 pwm_inst\.counter\[5\]
*854 pwm_inst\.counter\[6\]
*855 pwm_inst\.counter\[7\]
*856 pwm_inst\.counter\[8\]
*857 pwm_inst\.counter\[9\]
*858 pwm_inst\.cycles_freq\[0\]
*859 pwm_inst\.cycles_freq\[10\]
*860 pwm_inst\.cycles_freq\[11\]
*861 pwm_inst\.cycles_freq\[12\]
*862 pwm_inst\.cycles_freq\[13\]
*863 pwm_inst\.cycles_freq\[14\]
*864 pwm_inst\.cycles_freq\[15\]
*865 pwm_inst\.cycles_freq\[1\]
*866 pwm_inst\.cycles_freq\[2\]
*867 pwm_inst\.cycles_freq\[3\]
*868 pwm_inst\.cycles_freq\[4\]
*869 pwm_inst\.cycles_freq\[5\]
*870 pwm_inst\.cycles_freq\[6\]
*871 pwm_inst\.cycles_freq\[7\]
*872 pwm_inst\.cycles_freq\[8\]
*873 pwm_inst\.cycles_freq\[9\]
*874 pwm_inst\.cycles_high\[0\]
*875 pwm_inst\.cycles_high\[10\]
*876 pwm_inst\.cycles_high\[11\]
*877 pwm_inst\.cycles_high\[12\]
*878 pwm_inst\.cycles_high\[13\]
*879 pwm_inst\.cycles_high\[14\]
*880 pwm_inst\.cycles_high\[15\]
*881 pwm_inst\.cycles_high\[1\]
*882 pwm_inst\.cycles_high\[2\]
*883 pwm_inst\.cycles_high\[3\]
*884 pwm_inst\.cycles_high\[4\]
*885 pwm_inst\.cycles_high\[5\]
*886 pwm_inst\.cycles_high\[6\]
*887 pwm_inst\.cycles_high\[7\]
*888 pwm_inst\.cycles_high\[8\]
*889 pwm_inst\.cycles_high\[9\]
*890 pwm_inst\.pwm
*891 spi_own_clock_ins\.addr_reg\[0\]
*892 spi_own_clock_ins\.addr_reg\[1\]
*893 spi_own_clock_ins\.addr_reg\[2\]
*894 spi_own_clock_ins\.data_rd\[0\]
*895 spi_own_clock_ins\.data_rd\[1\]
*896 spi_own_clock_ins\.data_rd\[2\]
*897 spi_own_clock_ins\.data_rd\[3\]
*898 spi_own_clock_ins\.data_rd\[4\]
*899 spi_own_clock_ins\.data_rd\[5\]
*900 spi_own_clock_ins\.data_rd\[6\]
*901 spi_own_clock_ins\.data_rd\[7\]
*902 spi_own_clock_ins\.data_rd_z1\[0\]
*903 spi_own_clock_ins\.data_rd_z1\[1\]
*904 spi_own_clock_ins\.data_rd_z1\[2\]
*905 spi_own_clock_ins\.data_rd_z1\[3\]
*906 spi_own_clock_ins\.data_rd_z1\[4\]
*907 spi_own_clock_ins\.data_rd_z1\[5\]
*908 spi_own_clock_ins\.data_rd_z1\[6\]
*909 spi_own_clock_ins\.data_rd_z1\[7\]
*910 spi_own_clock_ins\.index\[0\]
*911 spi_own_clock_ins\.index\[1\]
*912 spi_own_clock_ins\.index\[2\]
*913 spi_own_clock_ins\.index\[3\]
*914 spi_own_clock_ins\.miso
*915 spi_own_clock_ins\.spi_data_reg\[0\]
*916 spi_own_clock_ins\.spi_data_reg\[1\]
*917 spi_own_clock_ins\.spi_data_reg\[2\]
*918 spi_own_clock_ins\.spi_data_reg\[3\]
*919 spi_own_clock_ins\.spi_data_reg\[4\]
*920 spi_own_clock_ins\.spi_data_reg\[5\]
*921 spi_own_clock_ins\.spi_data_reg\[6\]
*922 spi_own_clock_ins\.spi_data_reg\[7\]
*923 spi_own_clock_ins\.spi_state\[0\]
*924 spi_own_clock_ins\.spi_state\[1\]
*925 spi_own_clock_ins\.spi_state\[2\]
*926 spi_own_clock_ins\.spi_state\[3\]
*927 spi_sampled_ins\.addr_reg\[0\]
*928 spi_sampled_ins\.addr_reg\[1\]
*929 spi_sampled_ins\.addr_reg\[2\]
*930 spi_sampled_ins\.index\[0\]
*931 spi_sampled_ins\.index\[1\]
*932 spi_sampled_ins\.index\[2\]
*933 spi_sampled_ins\.index\[3\]
*934 spi_sampled_ins\.miso
*935 spi_sampled_ins\.neg_edge_det\.signal_z1
*936 spi_sampled_ins\.spi_data_reg\[0\]
*937 spi_sampled_ins\.spi_data_reg\[1\]
*938 spi_sampled_ins\.spi_data_reg\[2\]
*939 spi_sampled_ins\.spi_data_reg\[3\]
*940 spi_sampled_ins\.spi_data_reg\[4\]
*941 spi_sampled_ins\.spi_data_reg\[5\]
*942 spi_sampled_ins\.spi_data_reg\[6\]
*943 spi_sampled_ins\.spi_data_reg\[7\]
*944 spi_sampled_ins\.spi_state\[0\]
*945 spi_sampled_ins\.spi_state\[1\]
*946 FILLER_0_0_109
*947 FILLER_0_0_113
*948 FILLER_0_0_125
*949 FILLER_0_0_137
*950 FILLER_0_0_141
*951 FILLER_0_0_147
*952 FILLER_0_0_15
*953 FILLER_0_0_159
*954 FILLER_0_0_167
*955 FILLER_0_0_169
*956 FILLER_0_0_180
*957 FILLER_0_0_186
*958 FILLER_0_0_194
*959 FILLER_0_0_197
*960 FILLER_0_0_209
*961 FILLER_0_0_216
*962 FILLER_0_0_225
*963 FILLER_0_0_240
*964 FILLER_0_0_253
*965 FILLER_0_0_265
*966 FILLER_0_0_27
*967 FILLER_0_0_277
*968 FILLER_0_0_281
*969 FILLER_0_0_285
*970 FILLER_0_0_29
*971 FILLER_0_0_297
*972 FILLER_0_0_3
*973 FILLER_0_0_305
*974 FILLER_0_0_309
*975 FILLER_0_0_321
*976 FILLER_0_0_333
*977 FILLER_0_0_41
*978 FILLER_0_0_53
*979 FILLER_0_0_57
*980 FILLER_0_0_69
*981 FILLER_0_0_81
*982 FILLER_0_0_85
*983 FILLER_0_0_97
*984 FILLER_0_10_115
*985 FILLER_0_10_141
*986 FILLER_0_10_15
*987 FILLER_0_10_153
*988 FILLER_0_10_159
*989 FILLER_0_10_181
*990 FILLER_0_10_189
*991 FILLER_0_10_197
*992 FILLER_0_10_209
*993 FILLER_0_10_235
*994 FILLER_0_10_247
*995 FILLER_0_10_251
*996 FILLER_0_10_285
*997 FILLER_0_10_29
*998 FILLER_0_10_297
*999 FILLER_0_10_3
*1000 FILLER_0_10_330
*1001 FILLER_0_10_334
*1002 FILLER_0_10_40
*1003 FILLER_0_10_52
*1004 FILLER_0_10_62
*1005 FILLER_0_10_74
*1006 FILLER_0_10_82
*1007 FILLER_0_11_110
*1008 FILLER_0_11_113
*1009 FILLER_0_11_152
*1010 FILLER_0_11_167
*1011 FILLER_0_11_178
*1012 FILLER_0_11_201
*1013 FILLER_0_11_213
*1014 FILLER_0_11_245
*1015 FILLER_0_11_249
*1016 FILLER_0_11_3
*1017 FILLER_0_11_302
*1018 FILLER_0_11_328
*1019 FILLER_0_11_334
*1020 FILLER_0_11_45
*1021 FILLER_0_11_53
*1022 FILLER_0_11_57
*1023 FILLER_0_11_72
*1024 FILLER_0_11_80
*1025 FILLER_0_12_110
*1026 FILLER_0_12_15
*1027 FILLER_0_12_150
*1028 FILLER_0_12_183
*1029 FILLER_0_12_209
*1030 FILLER_0_12_217
*1031 FILLER_0_12_238
*1032 FILLER_0_12_250
*1033 FILLER_0_12_253
*1034 FILLER_0_12_258
*1035 FILLER_0_12_26
*1036 FILLER_0_12_289
*1037 FILLER_0_12_3
*1038 FILLER_0_12_301
*1039 FILLER_0_12_307
*1040 FILLER_0_12_318
*1041 FILLER_0_12_330
*1042 FILLER_0_12_334
*1043 FILLER_0_12_50
*1044 FILLER_0_12_54
*1045 FILLER_0_12_76
*1046 FILLER_0_13_103
*1047 FILLER_0_13_111
*1048 FILLER_0_13_113
*1049 FILLER_0_13_125
*1050 FILLER_0_13_141
*1051 FILLER_0_13_149
*1052 FILLER_0_13_15
*1053 FILLER_0_13_161
*1054 FILLER_0_13_166
*1055 FILLER_0_13_169
*1056 FILLER_0_13_181
*1057 FILLER_0_13_205
*1058 FILLER_0_13_217
*1059 FILLER_0_13_223
*1060 FILLER_0_13_225
*1061 FILLER_0_13_237
*1062 FILLER_0_13_247
*1063 FILLER_0_13_259
*1064 FILLER_0_13_27
*1065 FILLER_0_13_284
*1066 FILLER_0_13_292
*1067 FILLER_0_13_3
*1068 FILLER_0_13_317
*1069 FILLER_0_13_327
*1070 FILLER_0_13_34
*1071 FILLER_0_13_46
*1072 FILLER_0_13_54
*1073 FILLER_0_13_57
*1074 FILLER_0_13_69
*1075 FILLER_0_13_81
*1076 FILLER_0_13_92
*1077 FILLER_0_14_105
*1078 FILLER_0_14_121
*1079 FILLER_0_14_131
*1080 FILLER_0_14_139
*1081 FILLER_0_14_141
*1082 FILLER_0_14_153
*1083 FILLER_0_14_165
*1084 FILLER_0_14_177
*1085 FILLER_0_14_189
*1086 FILLER_0_14_195
*1087 FILLER_0_14_197
*1088 FILLER_0_14_214
*1089 FILLER_0_14_249
*1090 FILLER_0_14_253
*1091 FILLER_0_14_265
*1092 FILLER_0_14_277
*1093 FILLER_0_14_281
*1094 FILLER_0_14_3
*1095 FILLER_0_14_302
*1096 FILLER_0_14_327
*1097 FILLER_0_14_38
*1098 FILLER_0_14_75
*1099 FILLER_0_14_83
*1100 FILLER_0_14_85
*1101 FILLER_0_14_97
*1102 FILLER_0_15_103
*1103 FILLER_0_15_11
*1104 FILLER_0_15_113
*1105 FILLER_0_15_125
*1106 FILLER_0_15_141
*1107 FILLER_0_15_156
*1108 FILLER_0_15_169
*1109 FILLER_0_15_221
*1110 FILLER_0_15_261
*1111 FILLER_0_15_273
*1112 FILLER_0_15_279
*1113 FILLER_0_15_3
*1114 FILLER_0_15_301
*1115 FILLER_0_15_305
*1116 FILLER_0_15_330
*1117 FILLER_0_15_334
*1118 FILLER_0_15_78
*1119 FILLER_0_15_87
*1120 FILLER_0_16_105
*1121 FILLER_0_16_109
*1122 FILLER_0_16_157
*1123 FILLER_0_16_169
*1124 FILLER_0_16_213
*1125 FILLER_0_16_267
*1126 FILLER_0_16_3
*1127 FILLER_0_16_301
*1128 FILLER_0_16_32
*1129 FILLER_0_16_329
*1130 FILLER_0_16_7
*1131 FILLER_0_17_104
*1132 FILLER_0_17_148
*1133 FILLER_0_17_16
*1134 FILLER_0_17_165
*1135 FILLER_0_17_169
*1136 FILLER_0_17_177
*1137 FILLER_0_17_181
*1138 FILLER_0_17_218
*1139 FILLER_0_17_225
*1140 FILLER_0_17_260
*1141 FILLER_0_17_272
*1142 FILLER_0_17_278
*1143 FILLER_0_17_290
*1144 FILLER_0_17_3
*1145 FILLER_0_17_325
*1146 FILLER_0_17_333
*1147 FILLER_0_17_40
*1148 FILLER_0_17_48
*1149 FILLER_0_17_55
*1150 FILLER_0_17_69
*1151 FILLER_0_17_78
*1152 FILLER_0_17_9
*1153 FILLER_0_17_91
*1154 FILLER_0_17_98
*1155 FILLER_0_18_112
*1156 FILLER_0_18_120
*1157 FILLER_0_18_139
*1158 FILLER_0_18_148
*1159 FILLER_0_18_164
*1160 FILLER_0_18_176
*1161 FILLER_0_18_192
*1162 FILLER_0_18_197
*1163 FILLER_0_18_209
*1164 FILLER_0_18_221
*1165 FILLER_0_18_253
*1166 FILLER_0_18_265
*1167 FILLER_0_18_277
*1168 FILLER_0_18_289
*1169 FILLER_0_18_297
*1170 FILLER_0_18_3
*1171 FILLER_0_18_41
*1172 FILLER_0_18_7
*1173 FILLER_0_18_75
*1174 FILLER_0_18_83
*1175 FILLER_0_18_85
*1176 FILLER_0_18_97
*1177 FILLER_0_19_113
*1178 FILLER_0_19_121
*1179 FILLER_0_19_130
*1180 FILLER_0_19_134
*1181 FILLER_0_19_149
*1182 FILLER_0_19_15
*1183 FILLER_0_19_153
*1184 FILLER_0_19_161
*1185 FILLER_0_19_167
*1186 FILLER_0_19_169
*1187 FILLER_0_19_175
*1188 FILLER_0_19_198
*1189 FILLER_0_19_21
*1190 FILLER_0_19_211
*1191 FILLER_0_19_225
*1192 FILLER_0_19_234
*1193 FILLER_0_19_252
*1194 FILLER_0_19_264
*1195 FILLER_0_19_276
*1196 FILLER_0_19_281
*1197 FILLER_0_19_291
*1198 FILLER_0_19_3
*1199 FILLER_0_19_303
*1200 FILLER_0_19_33
*1201 FILLER_0_19_332
*1202 FILLER_0_19_45
*1203 FILLER_0_19_53
*1204 FILLER_0_19_77
*1205 FILLER_0_19_89
*1206 FILLER_0_1_111
*1207 FILLER_0_1_118
*1208 FILLER_0_1_130
*1209 FILLER_0_1_134
*1210 FILLER_0_1_138
*1211 FILLER_0_1_15
*1212 FILLER_0_1_163
*1213 FILLER_0_1_167
*1214 FILLER_0_1_194
*1215 FILLER_0_1_202
*1216 FILLER_0_1_223
*1217 FILLER_0_1_225
*1218 FILLER_0_1_256
*1219 FILLER_0_1_264
*1220 FILLER_0_1_27
*1221 FILLER_0_1_3
*1222 FILLER_0_1_301
*1223 FILLER_0_1_313
*1224 FILLER_0_1_325
*1225 FILLER_0_1_333
*1226 FILLER_0_1_39
*1227 FILLER_0_1_51
*1228 FILLER_0_1_55
*1229 FILLER_0_1_57
*1230 FILLER_0_1_69
*1231 FILLER_0_1_90
*1232 FILLER_0_20_107
*1233 FILLER_0_20_122
*1234 FILLER_0_20_139
*1235 FILLER_0_20_15
*1236 FILLER_0_20_150
*1237 FILLER_0_20_159
*1238 FILLER_0_20_167
*1239 FILLER_0_20_189
*1240 FILLER_0_20_195
*1241 FILLER_0_20_20
*1242 FILLER_0_20_218
*1243 FILLER_0_20_228
*1244 FILLER_0_20_251
*1245 FILLER_0_20_253
*1246 FILLER_0_20_26
*1247 FILLER_0_20_265
*1248 FILLER_0_20_271
*1249 FILLER_0_20_296
*1250 FILLER_0_20_3
*1251 FILLER_0_20_333
*1252 FILLER_0_20_38
*1253 FILLER_0_20_50
*1254 FILLER_0_20_58
*1255 FILLER_0_20_79
*1256 FILLER_0_20_83
*1257 FILLER_0_20_85
*1258 FILLER_0_21_11
*1259 FILLER_0_21_110
*1260 FILLER_0_21_120
*1261 FILLER_0_21_132
*1262 FILLER_0_21_148
*1263 FILLER_0_21_165
*1264 FILLER_0_21_177
*1265 FILLER_0_21_214
*1266 FILLER_0_21_262
*1267 FILLER_0_21_270
*1268 FILLER_0_21_276
*1269 FILLER_0_21_290
*1270 FILLER_0_21_298
*1271 FILLER_0_21_3
*1272 FILLER_0_21_323
*1273 FILLER_0_21_37
*1274 FILLER_0_21_48
*1275 FILLER_0_21_57
*1276 FILLER_0_21_63
*1277 FILLER_0_21_67
*1278 FILLER_0_21_78
*1279 FILLER_0_21_82
*1280 FILLER_0_22_106
*1281 FILLER_0_22_116
*1282 FILLER_0_22_124
*1283 FILLER_0_22_139
*1284 FILLER_0_22_152
*1285 FILLER_0_22_161
*1286 FILLER_0_22_174
*1287 FILLER_0_22_205
*1288 FILLER_0_22_213
*1289 FILLER_0_22_224
*1290 FILLER_0_22_233
*1291 FILLER_0_22_250
*1292 FILLER_0_22_259
*1293 FILLER_0_22_267
*1294 FILLER_0_22_290
*1295 FILLER_0_22_3
*1296 FILLER_0_22_302
*1297 FILLER_0_22_49
*1298 FILLER_0_22_7
*1299 FILLER_0_22_78
*1300 FILLER_0_22_85
*1301 FILLER_0_22_91
*1302 FILLER_0_22_95
*1303 FILLER_0_23_100
*1304 FILLER_0_23_11
*1305 FILLER_0_23_113
*1306 FILLER_0_23_131
*1307 FILLER_0_23_153
*1308 FILLER_0_23_165
*1309 FILLER_0_23_169
*1310 FILLER_0_23_177
*1311 FILLER_0_23_190
*1312 FILLER_0_23_202
*1313 FILLER_0_23_208
*1314 FILLER_0_23_234
*1315 FILLER_0_23_246
*1316 FILLER_0_23_25
*1317 FILLER_0_23_258
*1318 FILLER_0_23_278
*1319 FILLER_0_23_281
*1320 FILLER_0_23_292
*1321 FILLER_0_23_3
*1322 FILLER_0_23_304
*1323 FILLER_0_23_316
*1324 FILLER_0_23_328
*1325 FILLER_0_23_334
*1326 FILLER_0_23_42
*1327 FILLER_0_23_54
*1328 FILLER_0_23_57
*1329 FILLER_0_23_88
*1330 FILLER_0_24_115
*1331 FILLER_0_24_138
*1332 FILLER_0_24_141
*1333 FILLER_0_24_15
*1334 FILLER_0_24_174
*1335 FILLER_0_24_197
*1336 FILLER_0_24_209
*1337 FILLER_0_24_21
*1338 FILLER_0_24_236
*1339 FILLER_0_24_244
*1340 FILLER_0_24_248
*1341 FILLER_0_24_25
*1342 FILLER_0_24_262
*1343 FILLER_0_24_274
*1344 FILLER_0_24_29
*1345 FILLER_0_24_297
*1346 FILLER_0_24_3
*1347 FILLER_0_24_307
*1348 FILLER_0_24_41
*1349 FILLER_0_24_53
*1350 FILLER_0_24_80
*1351 FILLER_0_24_85
*1352 FILLER_0_24_97
*1353 FILLER_0_25_122
*1354 FILLER_0_25_130
*1355 FILLER_0_25_15
*1356 FILLER_0_25_162
*1357 FILLER_0_25_184
*1358 FILLER_0_25_195
*1359 FILLER_0_25_228
*1360 FILLER_0_25_240
*1361 FILLER_0_25_266
*1362 FILLER_0_25_272
*1363 FILLER_0_25_279
*1364 FILLER_0_25_281
*1365 FILLER_0_25_290
*1366 FILLER_0_25_3
*1367 FILLER_0_25_331
*1368 FILLER_0_25_34
*1369 FILLER_0_25_46
*1370 FILLER_0_25_54
*1371 FILLER_0_25_57
*1372 FILLER_0_25_74
*1373 FILLER_0_25_82
*1374 FILLER_0_25_90
*1375 FILLER_0_26_114
*1376 FILLER_0_26_126
*1377 FILLER_0_26_139
*1378 FILLER_0_26_141
*1379 FILLER_0_26_148
*1380 FILLER_0_26_164
*1381 FILLER_0_26_171
*1382 FILLER_0_26_186
*1383 FILLER_0_26_194
*1384 FILLER_0_26_203
*1385 FILLER_0_26_209
*1386 FILLER_0_26_239
*1387 FILLER_0_26_251
*1388 FILLER_0_26_253
*1389 FILLER_0_26_260
*1390 FILLER_0_26_266
*1391 FILLER_0_26_271
*1392 FILLER_0_26_283
*1393 FILLER_0_26_289
*1394 FILLER_0_26_3
*1395 FILLER_0_26_304
*1396 FILLER_0_26_331
*1397 FILLER_0_26_44
*1398 FILLER_0_26_56
*1399 FILLER_0_26_60
*1400 FILLER_0_26_7
*1401 FILLER_0_26_70
*1402 FILLER_0_26_82
*1403 FILLER_0_26_85
*1404 FILLER_0_27_111
*1405 FILLER_0_27_113
*1406 FILLER_0_27_147
*1407 FILLER_0_27_159
*1408 FILLER_0_27_167
*1409 FILLER_0_27_209
*1410 FILLER_0_27_221
*1411 FILLER_0_27_238
*1412 FILLER_0_27_246
*1413 FILLER_0_27_269
*1414 FILLER_0_27_277
*1415 FILLER_0_27_281
*1416 FILLER_0_27_285
*1417 FILLER_0_27_290
*1418 FILLER_0_27_3
*1419 FILLER_0_27_302
*1420 FILLER_0_27_314
*1421 FILLER_0_27_326
*1422 FILLER_0_27_334
*1423 FILLER_0_27_44
*1424 FILLER_0_27_52
*1425 FILLER_0_27_81
*1426 FILLER_0_27_93
*1427 FILLER_0_27_99
*1428 FILLER_0_28_103
*1429 FILLER_0_28_115
*1430 FILLER_0_28_153
*1431 FILLER_0_28_165
*1432 FILLER_0_28_171
*1433 FILLER_0_28_194
*1434 FILLER_0_28_205
*1435 FILLER_0_28_213
*1436 FILLER_0_28_238
*1437 FILLER_0_28_250
*1438 FILLER_0_28_258
*1439 FILLER_0_28_270
*1440 FILLER_0_28_274
*1441 FILLER_0_28_3
*1442 FILLER_0_28_307
*1443 FILLER_0_28_309
*1444 FILLER_0_28_32
*1445 FILLER_0_28_321
*1446 FILLER_0_28_333
*1447 FILLER_0_28_57
*1448 FILLER_0_28_63
*1449 FILLER_0_28_7
*1450 FILLER_0_28_70
*1451 FILLER_0_28_82
*1452 FILLER_0_28_89
*1453 FILLER_0_29_100
*1454 FILLER_0_29_111
*1455 FILLER_0_29_117
*1456 FILLER_0_29_133
*1457 FILLER_0_29_144
*1458 FILLER_0_29_15
*1459 FILLER_0_29_156
*1460 FILLER_0_29_169
*1461 FILLER_0_29_201
*1462 FILLER_0_29_205
*1463 FILLER_0_29_222
*1464 FILLER_0_29_242
*1465 FILLER_0_29_254
*1466 FILLER_0_29_266
*1467 FILLER_0_29_272
*1468 FILLER_0_29_281
*1469 FILLER_0_29_3
*1470 FILLER_0_29_303
*1471 FILLER_0_29_319
*1472 FILLER_0_29_32
*1473 FILLER_0_29_331
*1474 FILLER_0_29_44
*1475 FILLER_0_29_57
*1476 FILLER_0_29_73
*1477 FILLER_0_2_128
*1478 FILLER_0_2_139
*1479 FILLER_0_2_15
*1480 FILLER_0_2_160
*1481 FILLER_0_2_197
*1482 FILLER_0_2_27
*1483 FILLER_0_2_29
*1484 FILLER_0_2_3
*1485 FILLER_0_2_304
*1486 FILLER_0_2_309
*1487 FILLER_0_2_321
*1488 FILLER_0_2_333
*1489 FILLER_0_2_41
*1490 FILLER_0_2_53
*1491 FILLER_0_2_61
*1492 FILLER_0_2_91
*1493 FILLER_0_30_116
*1494 FILLER_0_30_128
*1495 FILLER_0_30_134
*1496 FILLER_0_30_138
*1497 FILLER_0_30_150
*1498 FILLER_0_30_158
*1499 FILLER_0_30_183
*1500 FILLER_0_30_195
*1501 FILLER_0_30_197
*1502 FILLER_0_30_212
*1503 FILLER_0_30_242
*1504 FILLER_0_30_250
*1505 FILLER_0_30_3
*1506 FILLER_0_30_330
*1507 FILLER_0_30_334
*1508 FILLER_0_30_34
*1509 FILLER_0_30_45
*1510 FILLER_0_30_53
*1511 FILLER_0_30_7
*1512 FILLER_0_30_76
*1513 FILLER_0_30_91
*1514 FILLER_0_31_100
*1515 FILLER_0_31_11
*1516 FILLER_0_31_111
*1517 FILLER_0_31_113
*1518 FILLER_0_31_125
*1519 FILLER_0_31_129
*1520 FILLER_0_31_160
*1521 FILLER_0_31_164
*1522 FILLER_0_31_172
*1523 FILLER_0_31_177
*1524 FILLER_0_31_207
*1525 FILLER_0_31_222
*1526 FILLER_0_31_225
*1527 FILLER_0_31_231
*1528 FILLER_0_31_255
*1529 FILLER_0_31_267
*1530 FILLER_0_31_279
*1531 FILLER_0_31_281
*1532 FILLER_0_31_287
*1533 FILLER_0_31_299
*1534 FILLER_0_31_3
*1535 FILLER_0_31_321
*1536 FILLER_0_31_333
*1537 FILLER_0_31_46
*1538 FILLER_0_31_50
*1539 FILLER_0_31_78
*1540 FILLER_0_31_90
*1541 FILLER_0_32_119
*1542 FILLER_0_32_130
*1543 FILLER_0_32_139
*1544 FILLER_0_32_144
*1545 FILLER_0_32_15
*1546 FILLER_0_32_19
*1547 FILLER_0_32_194
*1548 FILLER_0_32_197
*1549 FILLER_0_32_201
*1550 FILLER_0_32_216
*1551 FILLER_0_32_226
*1552 FILLER_0_32_232
*1553 FILLER_0_32_251
*1554 FILLER_0_32_265
*1555 FILLER_0_32_277
*1556 FILLER_0_32_289
*1557 FILLER_0_32_3
*1558 FILLER_0_32_32
*1559 FILLER_0_32_330
*1560 FILLER_0_32_334
*1561 FILLER_0_32_44
*1562 FILLER_0_32_66
*1563 FILLER_0_32_78
*1564 FILLER_0_32_85
*1565 FILLER_0_32_97
*1566 FILLER_0_33_113
*1567 FILLER_0_33_135
*1568 FILLER_0_33_147
*1569 FILLER_0_33_155
*1570 FILLER_0_33_165
*1571 FILLER_0_33_169
*1572 FILLER_0_33_188
*1573 FILLER_0_33_200
*1574 FILLER_0_33_220
*1575 FILLER_0_33_233
*1576 FILLER_0_33_239
*1577 FILLER_0_33_269
*1578 FILLER_0_33_277
*1579 FILLER_0_33_281
*1580 FILLER_0_33_293
*1581 FILLER_0_33_3
*1582 FILLER_0_33_31
*1583 FILLER_0_33_329
*1584 FILLER_0_33_43
*1585 FILLER_0_33_7
*1586 FILLER_0_33_70
*1587 FILLER_0_33_82
*1588 FILLER_0_33_91
*1589 FILLER_0_34_103
*1590 FILLER_0_34_11
*1591 FILLER_0_34_141
*1592 FILLER_0_34_145
*1593 FILLER_0_34_153
*1594 FILLER_0_34_165
*1595 FILLER_0_34_17
*1596 FILLER_0_34_173
*1597 FILLER_0_34_185
*1598 FILLER_0_34_195
*1599 FILLER_0_34_205
*1600 FILLER_0_34_209
*1601 FILLER_0_34_213
*1602 FILLER_0_34_224
*1603 FILLER_0_34_23
*1604 FILLER_0_34_233
*1605 FILLER_0_34_245
*1606 FILLER_0_34_251
*1607 FILLER_0_34_253
*1608 FILLER_0_34_27
*1609 FILLER_0_34_280
*1610 FILLER_0_34_292
*1611 FILLER_0_34_3
*1612 FILLER_0_34_312
*1613 FILLER_0_34_334
*1614 FILLER_0_34_38
*1615 FILLER_0_34_59
*1616 FILLER_0_34_80
*1617 FILLER_0_35_101
*1618 FILLER_0_35_109
*1619 FILLER_0_35_119
*1620 FILLER_0_35_131
*1621 FILLER_0_35_154
*1622 FILLER_0_35_160
*1623 FILLER_0_35_164
*1624 FILLER_0_35_169
*1625 FILLER_0_35_175
*1626 FILLER_0_35_200
*1627 FILLER_0_35_206
*1628 FILLER_0_35_223
*1629 FILLER_0_35_233
*1630 FILLER_0_35_266
*1631 FILLER_0_35_274
*1632 FILLER_0_35_279
*1633 FILLER_0_35_3
*1634 FILLER_0_35_313
*1635 FILLER_0_35_325
*1636 FILLER_0_35_333
*1637 FILLER_0_35_34
*1638 FILLER_0_35_46
*1639 FILLER_0_35_50
*1640 FILLER_0_35_71
*1641 FILLER_0_35_83
*1642 FILLER_0_36_11
*1643 FILLER_0_36_120
*1644 FILLER_0_36_128
*1645 FILLER_0_36_139
*1646 FILLER_0_36_141
*1647 FILLER_0_36_165
*1648 FILLER_0_36_191
*1649 FILLER_0_36_195
*1650 FILLER_0_36_197
*1651 FILLER_0_36_253
*1652 FILLER_0_36_264
*1653 FILLER_0_36_3
*1654 FILLER_0_36_329
*1655 FILLER_0_36_59
*1656 FILLER_0_36_74
*1657 FILLER_0_36_82
*1658 FILLER_0_36_85
*1659 FILLER_0_37_102
*1660 FILLER_0_37_111
*1661 FILLER_0_37_116
*1662 FILLER_0_37_128
*1663 FILLER_0_37_133
*1664 FILLER_0_37_139
*1665 FILLER_0_37_146
*1666 FILLER_0_37_15
*1667 FILLER_0_37_156
*1668 FILLER_0_37_160
*1669 FILLER_0_37_19
*1670 FILLER_0_37_198
*1671 FILLER_0_37_228