*SPEF "ieee 1481-1999"
*DESIGN "tt_um_spi_pwm_djuara"
*DATE "11:11:11 Fri 11 11, 1111"
*VENDOR "OpenRCX"
*PROGRAM "Parallel Extraction"
*VERSION "1.0"
*DESIGN_FLOW "NAME_SCOPE LOCAL" "PIN_CAP NONE"
*DIVIDER /
*DELIMITER :
*BUS_DELIMITER []
*T_UNIT 1 NS
*C_UNIT 1 PF
*R_UNIT 1 OHM
*L_UNIT 1 HENRY

*NAME_MAP
*3 clk
*4 ena
*5 rst_n
*6 ui_in[0]
*7 ui_in[1]
*8 ui_in[2]
*9 ui_in[3]
*10 ui_in[4]
*11 ui_in[5]
*12 ui_in[6]
*13 ui_in[7]
*14 uio_in[0]
*15 uio_in[1]
*16 uio_in[2]
*17 uio_in[3]
*18 uio_in[4]
*19 uio_in[5]
*20 uio_in[6]
*21 uio_in[7]
*22 net30
*23 net31
*24 net32
*25 net33
*26 net34
*27 net35
*28 net36
*29 net37
*30 net38
*31 net39
*32 net40
*33 net41
*34 net42
*35 net43
*36 net44
*37 net45
*38 uo_out[0]
*39 uo_out[1]
*40 uo_out[2]
*41 net46
*42 net47
*43 net48
*44 net49
*45 net50
*46 _0000_
*47 _0001_
*48 _0002_
*49 _0003_
*50 _0004_
*51 _0005_
*52 _0006_
*53 _0007_
*54 _0008_
*55 _0009_
*56 _0010_
*57 _0011_
*58 _0012_
*59 _0013_
*60 _0014_
*61 _0015_
*62 _0016_
*63 _0017_
*64 _0018_
*65 _0019_
*66 _0020_
*67 _0021_
*68 _0022_
*69 _0023_
*70 _0024_
*71 _0025_
*72 _0026_
*73 _0027_
*74 _0028_
*75 _0029_
*76 _0030_
*77 _0031_
*78 _0032_
*79 _0033_
*80 _0034_
*81 _0035_
*82 _0036_
*83 _0037_
*84 _0038_
*85 _0039_
*86 _0040_
*87 _0041_
*88 _0042_
*89 _0043_
*90 _0044_
*91 _0045_
*92 _0046_
*93 _0047_
*94 _0048_
*95 _0049_
*96 _0050_
*97 _0051_
*98 _0052_
*99 _0053_
*100 _0054_
*101 _0055_
*102 _0056_
*103 _0057_
*104 _0058_
*105 _0059_
*106 _0060_
*107 _0061_
*108 _0062_
*109 _0063_
*110 _0064_
*111 _0065_
*112 _0066_
*113 _0067_
*114 _0068_
*115 _0069_
*116 _0070_
*117 _0071_
*118 _0072_
*119 _0073_
*120 _0074_
*121 _0075_
*122 _0076_
*123 _0077_
*124 _0078_
*125 _0079_
*126 _0080_
*127 _0081_
*128 _0082_
*129 _0083_
*130 _0084_
*131 _0085_
*132 _0086_
*133 _0087_
*134 _0088_
*135 _0089_
*136 _0090_
*137 _0091_
*138 _0092_
*139 _0093_
*140 _0094_
*141 _0095_
*142 _0096_
*143 _0097_
*144 _0098_
*145 _0099_
*146 _0100_
*147 _0101_
*148 _0102_
*149 _0103_
*150 _0104_
*151 _0105_
*152 _0106_
*153 _0107_
*154 _0108_
*155 _0109_
*156 _0110_
*157 _0111_
*158 _0112_
*159 _0113_
*160 _0114_
*161 _0115_
*162 _0116_
*163 _0117_
*164 _0118_
*165 _0119_
*166 _0120_
*167 _0121_
*168 _0122_
*169 _0123_
*170 _0124_
*171 _0125_
*172 _0126_
*173 _0127_
*174 _0128_
*175 _0129_
*176 _0130_
*177 _0131_
*178 _0132_
*179 _0133_
*180 _0134_
*181 _0135_
*182 _0136_
*183 _0137_
*184 _0138_
*185 _0139_
*186 _0140_
*187 _0141_
*188 _0142_
*189 _0143_
*190 _0144_
*191 _0145_
*192 _0146_
*193 _0147_
*194 _0148_
*195 _0149_
*196 _0150_
*197 _0151_
*198 _0152_
*199 _0153_
*200 _0154_
*201 _0155_
*202 _0156_
*203 _0157_
*204 _0158_
*205 _0159_
*206 _0160_
*207 _0161_
*208 _0162_
*209 _0163_
*210 _0164_
*211 _0165_
*212 _0166_
*213 _0167_
*214 _0168_
*215 _0169_
*216 _0170_
*217 _0171_
*218 _0172_
*219 _0173_
*220 _0174_
*221 _0175_
*222 _0176_
*223 _0177_
*224 _0178_
*225 _0179_
*226 _0180_
*227 _0181_
*228 _0182_
*229 _0183_
*230 _0184_
*231 _0185_
*232 _0186_
*233 _0187_
*234 _0188_
*235 _0189_
*236 _0190_
*237 _0191_
*238 _0192_
*239 _0193_
*240 _0194_
*241 _0195_
*242 _0196_
*243 _0197_
*244 _0198_
*245 _0199_
*246 _0200_
*247 _0201_
*248 _0202_
*249 _0203_
*250 _0204_
*251 _0205_
*252 _0206_
*253 _0207_
*254 _0208_
*255 _0209_
*256 _0210_
*257 _0211_
*258 _0212_
*259 _0213_
*260 _0214_
*261 _0215_
*262 _0216_
*263 _0217_
*264 _0218_
*265 _0219_
*266 _0220_
*267 _0221_
*268 _0222_
*269 _0223_
*270 _0224_
*271 _0225_
*272 _0226_
*273 _0227_
*274 _0228_
*275 _0229_
*276 _0230_
*277 _0231_
*278 _0232_
*279 _0233_
*280 _0234_
*281 _0235_
*282 _0236_
*283 _0237_
*284 _0238_
*285 _0239_
*286 _0240_
*287 _0241_
*288 _0242_
*289 _0243_
*290 _0244_
*291 _0245_
*292 _0246_
*293 _0247_
*294 _0248_
*295 _0249_
*296 _0250_
*297 _0251_
*298 _0252_
*299 _0253_
*300 _0254_
*301 _0255_
*302 _0256_
*303 _0257_
*304 _0258_
*305 _0259_
*306 _0260_
*307 _0261_
*308 _0262_
*309 _0263_
*310 _0264_
*311 _0265_
*312 _0266_
*313 _0267_
*314 _0268_
*315 _0269_
*316 _0270_
*317 _0271_
*318 _0272_
*319 _0273_
*320 _0274_
*321 _0275_
*322 _0276_
*323 _0277_
*324 _0278_
*325 _0279_
*326 _0280_
*327 _0281_
*328 _0282_
*329 _0283_
*330 _0284_
*331 _0285_
*332 _0286_
*333 _0287_
*334 _0288_
*335 _0289_
*336 _0290_
*337 _0291_
*338 _0292_
*339 _0293_
*340 _0294_
*341 _0295_
*342 _0296_
*343 _0297_
*344 _0298_
*345 _0299_
*346 _0300_
*347 _0301_
*348 _0302_
*349 _0303_
*350 _0304_
*351 _0305_
*352 _0306_
*353 _0307_
*354 _0308_
*355 _0309_
*356 _0310_
*357 _0311_
*358 _0312_
*359 _0313_
*360 _0314_
*361 _0315_
*362 _0316_
*363 _0317_
*364 _0318_
*365 _0319_
*366 _0320_
*367 _0321_
*368 _0322_
*369 _0323_
*370 _0324_
*371 _0325_
*372 _0326_
*373 _0327_
*374 _0328_
*375 _0329_
*376 _0330_
*377 _0331_
*378 _0332_
*379 _0333_
*380 _0334_
*381 _0335_
*382 _0336_
*383 _0337_
*384 _0338_
*385 _0339_
*386 _0340_
*387 _0341_
*388 _0342_
*389 _0343_
*390 _0344_
*391 _0345_
*392 _0346_
*393 _0347_
*394 _0348_
*395 _0349_
*396 _0350_
*397 _0351_
*398 _0352_
*399 _0353_
*400 _0354_
*401 _0355_
*402 _0356_
*403 _0357_
*404 _0358_
*405 _0359_
*406 _0360_
*407 _0361_
*408 _0362_
*409 _0363_
*410 _0364_
*411 _0365_
*412 _0366_
*413 _0367_
*414 _0368_
*415 _0369_
*416 _0370_
*417 _0371_
*418 _0372_
*419 _0373_
*420 _0374_
*421 _0375_
*422 _0376_
*423 _0377_
*424 _0378_
*425 _0379_
*426 _0380_
*427 _0381_
*428 _0382_
*429 _0383_
*430 _0384_
*431 _0385_
*432 _0386_
*433 _0387_
*434 _0388_
*435 _0389_
*436 _0390_
*437 _0391_
*438 _0392_
*439 _0393_
*440 _0394_
*441 _0395_
*442 _0396_
*443 _0397_
*444 _0398_
*445 _0399_
*446 _0400_
*447 _0401_
*448 _0402_
*449 _0403_
*450 _0404_
*451 _0405_
*452 _0406_
*453 _0407_
*454 _0408_
*455 _0409_
*456 _0410_
*457 _0411_
*458 _0412_
*459 _0413_
*460 _0414_
*461 _0415_
*462 _0416_
*463 _0417_
*464 _0418_
*465 _0419_
*466 _0420_
*467 _0421_
*468 _0422_
*469 _0423_
*470 _0424_
*471 _0425_
*472 _0426_
*473 _0427_
*474 _0428_
*475 _0429_
*476 _0430_
*477 _0431_
*478 _0432_
*479 _0433_
*480 _0434_
*481 _0435_
*482 _0436_
*483 _0437_
*484 _0438_
*485 _0439_
*486 _0440_
*487 _0441_
*488 _0442_
*489 _0443_
*490 _0444_
*491 _0445_
*492 _0446_
*493 _0447_
*494 _0448_
*495 _0449_
*496 _0450_
*497 _0451_
*498 _0452_
*499 _0453_
*500 _0454_
*501 _0455_
*502 _0456_
*503 _0457_
*504 _0458_
*505 _0459_
*506 _0460_
*507 _0461_
*508 _0462_
*509 _0463_
*510 _0464_
*511 _0465_
*512 _0466_
*513 _0467_
*514 _0468_
*515 _0469_
*516 _0470_
*517 _0471_
*518 _0472_
*519 _0473_
*520 _0474_
*521 _0475_
*522 _0476_
*523 _0477_
*524 _0478_
*525 _0479_
*526 _0480_
*527 _0481_
*528 _0482_
*529 _0483_
*530 _0484_
*531 _0485_
*532 _0486_
*533 _0487_
*534 _0488_
*535 _0489_
*536 _0490_
*537 _0491_
*538 _0492_
*539 _0493_
*540 _0494_
*541 _0495_
*542 _0496_
*543 _0497_
*544 _0498_
*545 _0499_
*546 _0500_
*547 _0501_
*548 _0502_
*549 _0503_
*550 _0504_
*551 _0505_
*552 _0506_
*553 _0507_
*554 _0508_
*555 _0509_
*556 _0510_
*557 _0511_
*558 _0512_
*559 _0513_
*560 _0514_
*561 _0515_
*562 _0516_
*563 _0517_
*564 _0518_
*565 _0519_
*566 _0520_
*567 _0521_
*568 _0522_
*569 _0523_
*570 _0524_
*571 _0525_
*572 _0526_
*573 _0527_
*574 _0528_
*575 _0529_
*576 _0530_
*577 _0531_
*578 _0532_
*579 _0533_
*580 _0534_
*581 _0535_
*582 _0536_
*583 _0537_
*584 _0538_
*585 _0539_
*586 _0540_
*587 _0541_
*588 _0542_
*589 _0543_
*590 _0544_
*591 _0545_
*592 _0546_
*593 _0547_
*594 _0548_
*595 _0549_
*596 _0550_
*597 _0551_
*598 _0552_
*599 _0553_
*600 _0554_
*601 _0555_
*602 _0556_
*603 _0557_
*604 _0558_
*605 _0559_
*606 _0560_
*607 _0561_
*608 _0562_
*609 _0563_
*610 _0564_
*611 _0565_
*612 _0566_
*613 _0567_
*614 _0568_
*615 _0569_
*616 _0570_
*617 _0571_
*618 _0572_
*619 _0573_
*620 _0574_
*621 _0575_
*622 _0576_
*623 _0577_
*624 _0578_
*625 _0579_
*626 _0580_
*627 _0581_
*628 _0582_
*629 _0583_
*630 _0584_
*631 _0585_
*632 _0586_
*633 _0587_
*634 _0588_
*635 _0589_
*636 _0590_
*637 _0591_
*638 _0592_
*639 _0593_
*640 _0594_
*641 _0595_
*642 _0596_
*643 _0597_
*644 _0598_
*645 _0599_
*646 _0600_
*647 _0601_
*648 _0602_
*649 _0603_
*650 _0604_
*651 _0605_
*652 _0606_
*653 _0607_
*654 _0608_
*655 _0609_
*656 _0610_
*657 _0611_
*658 _0612_
*659 _0613_
*660 _0614_
*661 _0615_
*662 _0616_
*663 _0617_
*664 _0618_
*665 _0619_
*666 _0620_
*667 _0621_
*668 _0622_
*669 _0623_
*670 _0624_
*671 _0625_
*672 _0626_
*673 _0627_
*674 _0628_
*675 _0629_
*676 _0630_
*677 _0631_
*678 _0632_
*679 _0633_
*680 _0634_
*681 _0635_
*682 _0636_
*683 _0637_
*684 _0638_
*685 _0639_
*686 _0640_
*687 _0641_
*688 _0642_
*689 _0643_
*690 _0644_
*691 _0645_
*692 _0646_
*693 _0647_
*694 _0648_
*695 _0649_
*696 _0650_
*697 _0651_
*698 _0652_
*699 _0653_
*700 _0654_
*701 _0655_
*702 _0656_
*703 _0657_
*704 _0658_
*705 _0659_
*706 _0660_
*707 _0661_
*708 _0662_
*709 _0663_
*710 _0664_
*711 _0665_
*712 _0666_
*713 _0667_
*714 _0668_
*715 _0669_
*716 _0670_
*717 _0671_
*718 _0672_
*719 _0673_
*720 _0674_
*721 _0675_
*722 _0676_
*723 _0677_
*724 _0678_
*725 _0679_
*726 clknet_0_clk
*727 clknet_3_0__leaf_clk
*728 clknet_3_1__leaf_clk
*729 clknet_3_2__leaf_clk
*730 clknet_3_3__leaf_clk
*731 clknet_3_4__leaf_clk
*732 clknet_3_5__leaf_clk
*733 clknet_3_6__leaf_clk
*734 clknet_3_7__leaf_clk
*735 data_wr_z1\[0\]
*736 data_wr_z1\[1\]
*737 data_wr_z1\[2\]
*738 data_wr_z1\[3\]
*739 data_wr_z1\[4\]
*740 data_wr_z1\[5\]
*741 data_wr_z1\[6\]
*742 data_wr_z1\[7\]
*743 dev_regs\[0\]\[0\]
*744 dev_regs\[0\]\[1\]
*745 dev_regs\[0\]\[2\]
*746 dev_regs\[0\]\[3\]
*747 dev_regs\[0\]\[4\]
*748 dev_regs\[0\]\[5\]
*749 dev_regs\[0\]\[6\]
*750 dev_regs\[0\]\[7\]
*751 dev_regs\[1\]\[0\]
*752 dev_regs\[1\]\[1\]
*753 dev_regs\[1\]\[2\]
*754 dev_regs\[1\]\[3\]
*755 dev_regs\[1\]\[4\]
*756 dev_regs\[1\]\[5\]
*757 dev_regs\[1\]\[6\]
*758 dev_regs\[1\]\[7\]
*759 dev_regs\[6\]\[0\]
*760 dev_regs\[6\]\[1\]
*761 dev_regs\[6\]\[2\]
*762 dev_regs\[6\]\[3\]
*763 dev_regs\[6\]\[4\]
*764 dev_regs\[6\]\[5\]
*765 dev_regs\[6\]\[6\]
*766 dev_regs\[6\]\[7\]
*767 dev_regs\[7\]\[0\]
*768 dev_regs\[7\]\[1\]
*769 dev_regs\[7\]\[2\]
*770 dev_regs\[7\]\[3\]
*771 dev_regs\[7\]\[4\]
*772 dev_regs\[7\]\[5\]
*773 dev_regs\[7\]\[6\]
*774 dev_regs\[7\]\[7\]
*775 net1
*776 net10
*777 net11
*778 net12
*779 net13
*780 net14
*781 net15
*782 net16
*783 net17
*784 net18
*785 net19
*786 net2
*787 net20
*788 net21
*789 net22
*790 net23
*791 net24
*792 net25
*793 net26
*794 net27
*795 net28
*796 net29
*797 net3
*798 net4
*799 net5
*800 net51
*801 net52
*802 net53
*803 net54
*804 net55
*805 net56
*806 net57
*807 net58
*808 net59
*809 net6
*810 net60
*811 net7
*812 net8
*813 net9
*814 pwm_inst\.counter\[0\]
*815 pwm_inst\.counter\[10\]
*816 pwm_inst\.counter\[11\]
*817 pwm_inst\.counter\[12\]
*818 pwm_inst\.counter\[13\]
*819 pwm_inst\.counter\[14\]
*820 pwm_inst\.counter\[15\]
*821 pwm_inst\.counter\[1\]
*822 pwm_inst\.counter\[2\]
*823 pwm_inst\.counter\[3\]
*824 pwm_inst\.counter\[4\]
*825 pwm_inst\.counter\[5\]
*826 pwm_inst\.counter\[6\]
*827 pwm_inst\.counter\[7\]
*828 pwm_inst\.counter\[8\]
*829 pwm_inst\.counter\[9\]
*830 pwm_inst\.cycles_freq\[0\]
*831 pwm_inst\.cycles_freq\[10\]
*832 pwm_inst\.cycles_freq\[11\]
*833 pwm_inst\.cycles_freq\[12\]
*834 pwm_inst\.cycles_freq\[13\]
*835 pwm_inst\.cycles_freq\[14\]
*836 pwm_inst\.cycles_freq\[15\]
*837 pwm_inst\.cycles_freq\[1\]
*838 pwm_inst\.cycles_freq\[2\]
*839 pwm_inst\.cycles_freq\[3\]
*840 pwm_inst\.cycles_freq\[4\]
*841 pwm_inst\.cycles_freq\[5\]
*842 pwm_inst\.cycles_freq\[6\]
*843 pwm_inst\.cycles_freq\[7\]
*844 pwm_inst\.cycles_freq\[8\]
*845 pwm_inst\.cycles_freq\[9\]
*846 pwm_inst\.cycles_high\[0\]
*847 pwm_inst\.cycles_high\[10\]
*848 pwm_inst\.cycles_high\[11\]
*849 pwm_inst\.cycles_high\[12\]
*850 pwm_inst\.cycles_high\[13\]
*851 pwm_inst\.cycles_high\[14\]
*852 pwm_inst\.cycles_high\[15\]
*853 pwm_inst\.cycles_high\[1\]
*854 pwm_inst\.cycles_high\[2\]
*855 pwm_inst\.cycles_high\[3\]
*856 pwm_inst\.cycles_high\[4\]
*857 pwm_inst\.cycles_high\[5\]
*858 pwm_inst\.cycles_high\[6\]
*859 pwm_inst\.cycles_high\[7\]
*860 pwm_inst\.cycles_high\[8\]
*861 pwm_inst\.cycles_high\[9\]
*862 pwm_inst\.pwm
*863 spi_own_clock_ins\.addr_reg\[0\]
*864 spi_own_clock_ins\.addr_reg\[1\]
*865 spi_own_clock_ins\.addr_reg\[2\]
*866 spi_own_clock_ins\.addr_reg\[3\]
*867 spi_own_clock_ins\.data_rd\[0\]
*868 spi_own_clock_ins\.data_rd\[1\]
*869 spi_own_clock_ins\.data_rd\[2\]
*870 spi_own_clock_ins\.data_rd\[3\]
*871 spi_own_clock_ins\.data_rd\[4\]
*872 spi_own_clock_ins\.data_rd\[5\]
*873 spi_own_clock_ins\.data_rd\[6\]
*874 spi_own_clock_ins\.data_rd\[7\]
*875 spi_own_clock_ins\.data_rd_z1\[0\]
*876 spi_own_clock_ins\.data_rd_z1\[1\]
*877 spi_own_clock_ins\.data_rd_z1\[2\]
*878 spi_own_clock_ins\.data_rd_z1\[3\]
*879 spi_own_clock_ins\.data_rd_z1\[4\]
*880 spi_own_clock_ins\.data_rd_z1\[5\]
*881 spi_own_clock_ins\.data_rd_z1\[6\]
*882 spi_own_clock_ins\.data_rd_z1\[7\]
*883 spi_own_clock_ins\.index\[0\]
*884 spi_own_clock_ins\.index\[1\]
*885 spi_own_clock_ins\.index\[2\]
*886 spi_own_clock_ins\.index\[3\]
*887 spi_own_clock_ins\.miso
*888 spi_own_clock_ins\.spi_data_reg\[0\]
*889 spi_own_clock_ins\.spi_data_reg\[1\]
*890 spi_own_clock_ins\.spi_data_reg\[2\]
*891 spi_own_clock_ins\.spi_data_reg\[3\]
*892 spi_own_clock_ins\.spi_data_reg\[4\]
*893 spi_own_clock_ins\.spi_data_reg\[5\]
*894 spi_own_clock_ins\.spi_data_reg\[6\]
*895 spi_own_clock_ins\.spi_data_reg\[7\]
*896 spi_own_clock_ins\.spi_state\[0\]
*897 spi_own_clock_ins\.spi_state\[1\]
*898 spi_own_clock_ins\.spi_state\[2\]
*899 spi_own_clock_ins\.spi_state\[3\]
*900 spi_sampled_ins\.addr_reg\[0\]
*901 spi_sampled_ins\.addr_reg\[1\]
*902 spi_sampled_ins\.addr_reg\[2\]
*903 spi_sampled_ins\.addr_reg\[3\]
*904 spi_sampled_ins\.index\[0\]
*905 spi_sampled_ins\.index\[1\]
*906 spi_sampled_ins\.index\[2\]
*907 spi_sampled_ins\.index\[3\]
*908 spi_sampled_ins\.miso
*909 spi_sampled_ins\.neg_edge_det\.signal_z1
*910 spi_sampled_ins\.spi_data_reg\[0\]
*911 spi_sampled_ins\.spi_data_reg\[1\]
*912 spi_sampled_ins\.spi_data_reg\[2\]
*913 spi_sampled_ins\.spi_data_reg\[3\]
*914 spi_sampled_ins\.spi_data_reg\[4\]
*915 spi_sampled_ins\.spi_data_reg\[5\]
*916 spi_sampled_ins\.spi_data_reg\[6\]
*917 spi_sampled_ins\.spi_data_reg\[7\]
*918 spi_sampled_ins\.spi_state\[0\]
*919 spi_sampled_ins\.spi_state\[1\]
*920 ANTENNA_1
*921 ANTENNA_2
*922 ANTENNA_3
*923 ANTENNA_4
*924 FILLER_0_0_109
*925 FILLER_0_0_113
*926 FILLER_0_0_125
*927 FILLER_0_0_137
*928 FILLER_0_0_141
*929 FILLER_0_0_15
*930 FILLER_0_0_153
*931 FILLER_0_0_165
*932 FILLER_0_0_169
*933 FILLER_0_0_181
*934 FILLER_0_0_193
*935 FILLER_0_0_197
*936 FILLER_0_0_209
*937 FILLER_0_0_221
*938 FILLER_0_0_225
*939 FILLER_0_0_237
*940 FILLER_0_0_249
*941 FILLER_0_0_253
*942 FILLER_0_0_265
*943 FILLER_0_0_27
*944 FILLER_0_0_277
*945 FILLER_0_0_281
*946 FILLER_0_0_29
*947 FILLER_0_0_293
*948 FILLER_0_0_3
*949 FILLER_0_0_305
*950 FILLER_0_0_309
*951 FILLER_0_0_321
*952 FILLER_0_0_333
*953 FILLER_0_0_41
*954 FILLER_0_0_53
*955 FILLER_0_0_57
*956 FILLER_0_0_69
*957 FILLER_0_0_81
*958 FILLER_0_0_85
*959 FILLER_0_0_97
*960 FILLER_0_10_114
*961 FILLER_0_10_130
*962 FILLER_0_10_141
*963 FILLER_0_10_15
*964 FILLER_0_10_159
*965 FILLER_0_10_173
*966 FILLER_0_10_194
*967 FILLER_0_10_197
*968 FILLER_0_10_218
*969 FILLER_0_10_224
*970 FILLER_0_10_229
*971 FILLER_0_10_251
*972 FILLER_0_10_253
*973 FILLER_0_10_27
*974 FILLER_0_10_274
*975 FILLER_0_10_279
*976 FILLER_0_10_29
*977 FILLER_0_10_291
*978 FILLER_0_10_3
*979 FILLER_0_10_303
*980 FILLER_0_10_307
*981 FILLER_0_10_309
*982 FILLER_0_10_321
*983 FILLER_0_10_333
*984 FILLER_0_10_41
*985 FILLER_0_10_53
*986 FILLER_0_10_61
*987 FILLER_0_10_85
*988 FILLER_0_10_97
*989 FILLER_0_11_100
*990 FILLER_0_11_104
*991 FILLER_0_11_110
*992 FILLER_0_11_113
*993 FILLER_0_11_121
*994 FILLER_0_11_134
*995 FILLER_0_11_145
*996 FILLER_0_11_15
*997 FILLER_0_11_153
*998 FILLER_0_11_176
*999 FILLER_0_11_199
*1000 FILLER_0_11_208
*1001 FILLER_0_11_220
*1002 FILLER_0_11_234
*1003 FILLER_0_11_27
*1004 FILLER_0_11_270
*1005 FILLER_0_11_276
*1006 FILLER_0_11_3
*1007 FILLER_0_11_323
*1008 FILLER_0_11_39
*1009 FILLER_0_11_51
*1010 FILLER_0_11_55
*1011 FILLER_0_11_57
*1012 FILLER_0_11_66
*1013 FILLER_0_11_70
*1014 FILLER_0_11_74
*1015 FILLER_0_11_84
*1016 FILLER_0_11_96
*1017 FILLER_0_12_124
*1018 FILLER_0_12_132
*1019 FILLER_0_12_149
*1020 FILLER_0_12_15
*1021 FILLER_0_12_193
*1022 FILLER_0_12_220
*1023 FILLER_0_12_27
*1024 FILLER_0_12_280
*1025 FILLER_0_12_29
*1026 FILLER_0_12_290
*1027 FILLER_0_12_3
*1028 FILLER_0_12_302
*1029 FILLER_0_12_306
*1030 FILLER_0_12_318
*1031 FILLER_0_12_330
*1032 FILLER_0_12_334
*1033 FILLER_0_12_41
*1034 FILLER_0_12_53
*1035 FILLER_0_12_57
*1036 FILLER_0_12_79
*1037 FILLER_0_12_83
*1038 FILLER_0_13_109
*1039 FILLER_0_13_113
*1040 FILLER_0_13_125
*1041 FILLER_0_13_147
*1042 FILLER_0_13_15
*1043 FILLER_0_13_151
*1044 FILLER_0_13_166
*1045 FILLER_0_13_169
*1046 FILLER_0_13_175
*1047 FILLER_0_13_188
*1048 FILLER_0_13_196
*1049 FILLER_0_13_217
*1050 FILLER_0_13_222
*1051 FILLER_0_13_234
*1052 FILLER_0_13_268
*1053 FILLER_0_13_27
*1054 FILLER_0_13_276
*1055 FILLER_0_13_3
*1056 FILLER_0_13_302
*1057 FILLER_0_13_308
*1058 FILLER_0_13_320
*1059 FILLER_0_13_332
*1060 FILLER_0_13_39
*1061 FILLER_0_13_51
*1062 FILLER_0_13_55
*1063 FILLER_0_13_57
*1064 FILLER_0_13_63
*1065 FILLER_0_13_71
*1066 FILLER_0_13_81
*1067 FILLER_0_13_96
*1068 FILLER_0_14_106
*1069 FILLER_0_14_112
*1070 FILLER_0_14_137
*1071 FILLER_0_14_15
*1072 FILLER_0_14_150
*1073 FILLER_0_14_173
*1074 FILLER_0_14_251
*1075 FILLER_0_14_253
*1076 FILLER_0_14_27
*1077 FILLER_0_14_276
*1078 FILLER_0_14_29
*1079 FILLER_0_14_297
*1080 FILLER_0_14_3
*1081 FILLER_0_14_330
*1082 FILLER_0_14_334
*1083 FILLER_0_14_41
*1084 FILLER_0_14_53
*1085 FILLER_0_14_77
*1086 FILLER_0_15_103
*1087 FILLER_0_15_107
*1088 FILLER_0_15_111
*1089 FILLER_0_15_113
*1090 FILLER_0_15_15
*1091 FILLER_0_15_167
*1092 FILLER_0_15_169
*1093 FILLER_0_15_174
*1094 FILLER_0_15_185
*1095 FILLER_0_15_197
*1096 FILLER_0_15_201
*1097 FILLER_0_15_213
*1098 FILLER_0_15_221
*1099 FILLER_0_15_225
*1100 FILLER_0_15_231
*1101 FILLER_0_15_241
*1102 FILLER_0_15_27
*1103 FILLER_0_15_275
*1104 FILLER_0_15_3
*1105 FILLER_0_15_302
*1106 FILLER_0_15_318
*1107 FILLER_0_15_330
*1108 FILLER_0_15_334
*1109 FILLER_0_15_39
*1110 FILLER_0_15_51
*1111 FILLER_0_15_55
*1112 FILLER_0_15_57
*1113 FILLER_0_15_79
*1114 FILLER_0_15_91
*1115 FILLER_0_16_109
*1116 FILLER_0_16_128
*1117 FILLER_0_16_15
*1118 FILLER_0_16_150
*1119 FILLER_0_16_194
*1120 FILLER_0_16_206
*1121 FILLER_0_16_230
*1122 FILLER_0_16_27
*1123 FILLER_0_16_274
*1124 FILLER_0_16_29
*1125 FILLER_0_16_3
*1126 FILLER_0_16_306
*1127 FILLER_0_16_309
*1128 FILLER_0_16_331
*1129 FILLER_0_16_41
*1130 FILLER_0_16_53
*1131 FILLER_0_16_61
*1132 FILLER_0_16_68
*1133 FILLER_0_16_72
*1134 FILLER_0_16_82
*1135 FILLER_0_16_85
*1136 FILLER_0_17_103
*1137 FILLER_0_17_113
*1138 FILLER_0_17_144
*1139 FILLER_0_17_15
*1140 FILLER_0_17_156
*1141 FILLER_0_17_160
*1142 FILLER_0_17_175
*1143 FILLER_0_17_179
*1144 FILLER_0_17_185
*1145 FILLER_0_17_190
*1146 FILLER_0_17_213
*1147 FILLER_0_17_223
*1148 FILLER_0_17_225
*1149 FILLER_0_17_233
*1150 FILLER_0_17_243
*1151 FILLER_0_17_251
*1152 FILLER_0_17_258
*1153 FILLER_0_17_27
*1154 FILLER_0_17_270
*1155 FILLER_0_17_276
*1156 FILLER_0_17_297
*1157 FILLER_0_17_3
*1158 FILLER_0_17_319
*1159 FILLER_0_17_327
*1160 FILLER_0_17_333
*1161 FILLER_0_17_39
*1162 FILLER_0_17_51
*1163 FILLER_0_17_55
*1164 FILLER_0_17_57
*1165 FILLER_0_18_106
*1166 FILLER_0_18_112
*1167 FILLER_0_18_125
*1168 FILLER_0_18_137
*1169 FILLER_0_18_147
*1170 FILLER_0_18_15
*1171 FILLER_0_18_159
*1172 FILLER_0_18_167
*1173 FILLER_0_18_182
*1174 FILLER_0_18_194
*1175 FILLER_0_18_200
*1176 FILLER_0_18_212
*1177 FILLER_0_18_216
*1178 FILLER_0_18_225
*1179 FILLER_0_18_244
*1180 FILLER_0_18_260
*1181 FILLER_0_18_27
*1182 FILLER_0_18_270
*1183 FILLER_0_18_289
*1184 FILLER_0_18_29
*1185 FILLER_0_18_293
*1186 FILLER_0_18_3
*1187 FILLER_0_18_306
*1188 FILLER_0_18_329
*1189 FILLER_0_18_334
*1190 FILLER_0_18_41
*1191 FILLER_0_18_53
*1192 FILLER_0_18_79
*1193 FILLER_0_18_83
*1194 FILLER_0_18_85
*1195 FILLER_0_19_111
*1196 FILLER_0_19_15
*1197 FILLER_0_19_169
*1198 FILLER_0_19_177
*1199 FILLER_0_19_218
*1200 FILLER_0_19_253
*1201 FILLER_0_19_269
*1202 FILLER_0_19_27
*1203 FILLER_0_19_279
*1204 FILLER_0_19_281
*1205 FILLER_0_19_3
*1206 FILLER_0_19_311
*1207 FILLER_0_19_48
*1208 FILLER_0_19_57
*1209 FILLER_0_19_69
*1210 FILLER_0_19_75
*1211 FILLER_0_19_86
*1212 FILLER_0_19_90
*1213 FILLER_0_19_94
*1214 FILLER_0_1_105
*1215 FILLER_0_1_111
*1216 FILLER_0_1_113
*1217 FILLER_0_1_125
*1218 FILLER_0_1_137
*1219 FILLER_0_1_149
*1220 FILLER_0_1_15
*1221 FILLER_0_1_161
*1222 FILLER_0_1_167
*1223 FILLER_0_1_169
*1224 FILLER_0_1_181
*1225 FILLER_0_1_193
*1226 FILLER_0_1_205
*1227 FILLER_0_1_217
*1228 FILLER_0_1_223
*1229 FILLER_0_1_225
*1230 FILLER_0_1_237
*1231 FILLER_0_1_249
*1232 FILLER_0_1_261
*1233 FILLER_0_1_27
*1234 FILLER_0_1_273
*1235 FILLER_0_1_279
*1236 FILLER_0_1_281
*1237 FILLER_0_1_293
*1238 FILLER_0_1_3
*1239 FILLER_0_1_305
*1240 FILLER_0_1_317
*1241 FILLER_0_1_329
*1242 FILLER_0_1_39
*1243 FILLER_0_1_51
*1244 FILLER_0_1_55
*1245 FILLER_0_1_57
*1246 FILLER_0_1_69
*1247 FILLER_0_1_81
*1248 FILLER_0_1_93
*1249 FILLER_0_20_11
*1250 FILLER_0_20_115
*1251 FILLER_0_20_119
*1252 FILLER_0_20_129
*1253 FILLER_0_20_139
*1254 FILLER_0_20_141
*1255 FILLER_0_20_150
*1256 FILLER_0_20_159
*1257 FILLER_0_20_178
*1258 FILLER_0_20_193
*1259 FILLER_0_20_202
*1260 FILLER_0_20_226
*1261 FILLER_0_20_244
*1262 FILLER_0_20_250
*1263 FILLER_0_20_264
*1264 FILLER_0_20_272
*1265 FILLER_0_20_289
*1266 FILLER_0_20_29
*1267 FILLER_0_20_293
*1268 FILLER_0_20_3
*1269 FILLER_0_20_303
*1270 FILLER_0_20_33
*1271 FILLER_0_20_333
*1272 FILLER_0_20_7
*1273 FILLER_0_20_80
*1274 FILLER_0_20_85
*1275 FILLER_0_21_109
*1276 FILLER_0_21_113
*1277 FILLER_0_21_141
*1278 FILLER_0_21_159
*1279 FILLER_0_21_169
*1280 FILLER_0_21_188
*1281 FILLER_0_21_238
*1282 FILLER_0_21_254
*1283 FILLER_0_21_27
*1284 FILLER_0_21_271
*1285 FILLER_0_21_3
*1286 FILLER_0_21_48
*1287 FILLER_0_21_57
*1288 FILLER_0_21_69
*1289 FILLER_0_21_93
*1290 FILLER_0_21_99
*1291 FILLER_0_22_13
*1292 FILLER_0_22_141
*1293 FILLER_0_22_156
*1294 FILLER_0_22_169
*1295 FILLER_0_22_177
*1296 FILLER_0_22_192
*1297 FILLER_0_22_197
*1298 FILLER_0_22_20
*1299 FILLER_0_22_209
*1300 FILLER_0_22_229
*1301 FILLER_0_22_243
*1302 FILLER_0_22_251
*1303 FILLER_0_22_253
*1304 FILLER_0_22_263
*1305 FILLER_0_22_282
*1306 FILLER_0_22_290
*1307 FILLER_0_22_3
*1308 FILLER_0_22_305
*1309 FILLER_0_22_309
*1310 FILLER_0_22_320
*1311 FILLER_0_22_332
*1312 FILLER_0_22_47
*1313 FILLER_0_22_53
*1314 FILLER_0_22_57
*1315 FILLER_0_22_61
*1316 FILLER_0_22_69
*1317 FILLER_0_22_82
*1318 FILLER_0_22_9
*1319 FILLER_0_23_107
*1320 FILLER_0_23_111
*1321 FILLER_0_23_113
*1322 FILLER_0_23_140
*1323 FILLER_0_23_158
*1324 FILLER_0_23_167
*1325 FILLER_0_23_169
*1326 FILLER_0_23_185
*1327 FILLER_0_23_189
*1328 FILLER_0_23_217
*1329 FILLER_0_23_223
*1330 FILLER_0_23_241
*1331 FILLER_0_23_258
*1332 FILLER_0_23_27
*1333 FILLER_0_23_272
*1334 FILLER_0_23_289
*1335 FILLER_0_23_3
*1336 FILLER_0_23_311
*1337 FILLER_0_23_55
*1338 FILLER_0_23_66
*1339 FILLER_0_23_82
*1340 FILLER_0_24_125
*1341 FILLER_0_24_138
*1342 FILLER_0_24_151
*1343 FILLER_0_24_166
*1344 FILLER_0_24_202
*1345 FILLER_0_24_210
*1346 FILLER_0_24_217
*1347 FILLER_0_24_234
*1348 FILLER_0_24_251
*1349 FILLER_0_24_253
*1350 FILLER_0_24_275
*1351 FILLER_0_24_283
*1352 FILLER_0_24_288
*1353 FILLER_0_24_29
*1354 FILLER_0_24_3
*1355 FILLER_0_24_306
*1356 FILLER_0_24_309
*1357 FILLER_0_24_334
*1358 FILLER_0_24_37
*1359 FILLER_0_24_42
*1360 FILLER_0_24_54
*1361 FILLER_0_24_60
*1362 FILLER_0_24_81
*1363 FILLER_0_24_85
*1364 FILLER_0_24_98
*1365 FILLER_0_25_111
*1366 FILLER_0_25_116
*1367 FILLER_0_25_12
*1368 FILLER_0_25_120
*1369 FILLER_0_25_124
*1370 FILLER_0_25_128
*1371 FILLER_0_25_138
*1372 FILLER_0_25_18
*1373 FILLER_0_25_185
*1374 FILLER_0_25_194
*1375 FILLER_0_25_198
*1376 FILLER_0_25_205
*1377 FILLER_0_25_219
*1378 FILLER_0_25_22
*1379 FILLER_0_25_223
*1380 FILLER_0_25_290
*1381 FILLER_0_25_3
*1382 FILLER_0_25_32
*1383 FILLER_0_25_323
*1384 FILLER_0_25_332
*1385 FILLER_0_25_57
*1386 FILLER_0_25_69
*1387 FILLER_0_25_81
*1388 FILLER_0_25_89
*1389 FILLER_0_26_107
*1390 FILLER_0_26_115
*1391 FILLER_0_26_137
*1392 FILLER_0_26_141
*1393 FILLER_0_26_163
*1394 FILLER_0_26_184
*1395 FILLER_0_26_195
*1396 FILLER_0_26_209
*1397 FILLER_0_26_246
*1398 FILLER_0_26_25
*1399 FILLER_0_26_253
*1400 FILLER_0_26_266
*1401 FILLER_0_26_29
*1402 FILLER_0_26_294
*1403 FILLER_0_26_3
*1404 FILLER_0_26_304
*1405 FILLER_0_26_309
*1406 FILLER_0_26_33
*1407 FILLER_0_26_46
*1408 FILLER_0_26_82
*1409 FILLER_0_26_85
*1410 FILLER_0_26_93
*1411 FILLER_0_27_104
*1412 FILLER_0_27_113
*1413 FILLER_0_27_12
*1414 FILLER_0_27_144
*1415 FILLER_0_27_166
*1416 FILLER_0_27_169
*1417 FILLER_0_27_187
*1418 FILLER_0_27_208
*1419 FILLER_0_27_216
*1420 FILLER_0_27_245
*1421 FILLER_0_27_281
*1422 FILLER_0_27_293
*1423 FILLER_0_27_297
*1424 FILLER_0_27_3
*1425 FILLER_0_27_309
*1426 FILLER_0_27_320
*1427 FILLER_0_27_332
*1428 FILLER_0_27_49
*1429 FILLER_0_27_54
*1430 FILLER_0_27_60
*1431 FILLER_0_27_88
*1432 FILLER_0_27_94
*1433 FILLER_0_28_113
*1434 FILLER_0_28_122
*1435 FILLER_0_28_127
*1436 FILLER_0_28_139
*1437 FILLER_0_28_169
*1438 FILLER_0_28_192
*1439 FILLER_0_28_197
*1440 FILLER_0_28_215
*1441 FILLER_0_28_251
*1442 FILLER_0_28_283
*1443 FILLER_0_28_289
*1444 FILLER_0_28_29
*1445 FILLER_0_28_3
*1446 FILLER_0_28_305
*1447 FILLER_0_28_309
*1448 FILLER_0_28_321
*1449 FILLER_0_28_333
*1450 FILLER_0_28_37
*1451 FILLER_0_28_41
*1452 FILLER_0_28_74
*1453 FILLER_0_28_83
*1454 FILLER_0_28_88
*1455 FILLER_0_29_106
*1456 FILLER_0_29_11
*1457 FILLER_0_29_110
*1458 FILLER_0_29_113
*1459 FILLER_0_29_117
*1460 FILLER_0_29_15
*1461 FILLER_0_29_187
*1462 FILLER_0_29_198
*1463 FILLER_0_29_222
*1464 FILLER_0_29_225
*1465 FILLER_0_29_266
*1466 FILLER_0_29_276
*1467 FILLER_0_29_28
*1468 FILLER_0_29_281
*1469 FILLER_0_29_296
*1470 FILLER_0_29_3
*1471 FILLER_0_29_302
*1472 FILLER_0_29_334
*1473 FILLER_0_29_52
*1474 FILLER_0_29_57
*1475 FILLER_0_29_7
*1476 FILLER_0_29_99
*1477 FILLER_0_2_109
*1478 FILLER_0_2_121
*1479 FILLER_0_2_133
*1480 FILLER_0_2_139
*1481 FILLER_0_2_141
*1482 FILLER_0_2_15
*1483 FILLER_0_2_153
*1484 FILLER_0_2_165
*1485 FILLER_0_2_177
*1486 FILLER_0_2_189
*1487 FILLER_0_2_195
*1488 FILLER_0_2_197
*1489 FILLER_0_2_209
*1490 FILLER_0_2_221
*1491 FILLER_0_2_233
*1492 FILLER_0_2_245
*1493 FILLER_0_2_251
*1494 FILLER_0_2_253
*1495 FILLER_0_2_265
*1496 FILLER_0_2_27
*1497 FILLER_0_2_277
*1498 FILLER_0_2_289
*1499 FILLER_0_2_29
*1500 FILLER_0_2_3
*1501 FILLER_0_2_301
*1502 FILLER_0_2_307
*1503 FILLER_0_2_309
*1504 FILLER_0_2_321
*1505 FILLER_0_2_333
*1506 FILLER_0_2_41
*1507 FILLER_0_2_53
*1508 FILLER_0_2_65
*1509 FILLER_0_2_77
*1510 FILLER_0_2_83
*1511 FILLER_0_2_85
*1512 FILLER_0_2_97
*1513 FILLER_0_30_120
*1514 FILLER_0_30_129
*1515 FILLER_0_30_139
*1516 FILLER_0_30_141
*1517 FILLER_0_30_149
*1518 FILLER_0_30_221
*1519 FILLER_0_30_231
*1520 FILLER_0_30_259
*1521 FILLER_0_30_26
*1522 FILLER_0_30_263
*1523 FILLER_0_30_268
*1524 FILLER_0_30_3
*1525 FILLER_0_30_303
*1526 FILLER_0_30_317
*1527 FILLER_0_30_321
*1528 FILLER_0_30_325
*1529 FILLER_0_30_333
*1530 FILLER_0_30_41
*1531 FILLER_0_30_49
*1532 FILLER_0_30_58
*1533 FILLER_0_30_70
*1534 FILLER_0_30_78
*1535 FILLER_0_30_94
*1536 FILLER_0_31_100
*1537 FILLER_0_31_107
*1538 FILLER_0_31_111
*1539 FILLER_0_31_122
*1540 FILLER_0_31_166
*1541 FILLER_0_31_195
*1542 FILLER_0_31_203
*1543 FILLER_0_31_237
*1544 FILLER_0_31_270
*1545 FILLER_0_31_275
*1546 FILLER_0_31_279
*1547 FILLER_0_31_284
*1548 FILLER_0_31_3
*1549 FILLER_0_31_303
*1550 FILLER_0_31_309
*1551 FILLER_0_31_51
*1552 FILLER_0_31_55
*1553 FILLER_0_31_65
*1554 FILLER_0_31_74
*1555 FILLER_0_31_9
*1556 FILLER_0_31_94
*1557 FILLER_0_32_124
*1558 FILLER_0_32_128
*1559 FILLER_0_32_132
*1560 FILLER_0_32_166
*1561 FILLER_0_32_186
*1562 FILLER_0_32_197
*1563 FILLER_0_32_206
*1564 FILLER_0_32_256
*1565 FILLER_0_32_265
*1566 FILLER_0_32_273
*1567 FILLER_0_32_277
*1568 FILLER_0_32_29
*1569 FILLER_0_32_3
*1570 FILLER_0_32_300
*1571 FILLER_0_32_316
*1572 FILLER_0_32_327
*1573 FILLER_0_32_44
*1574 FILLER_0_32_49
*1575 FILLER_0_32_68
*1576 FILLER_0_32_81
*1577 FILLER_0_32_85
*1578 FILLER_0_33_11
*1579 FILLER_0_33_110
*1580 FILLER_0_33_119
*1581 FILLER_0_33_144
*1582 FILLER_0_33_164
*1583 FILLER_0_33_169
*1584 FILLER_0_33_179
*1585 FILLER_0_33_222
*1586 FILLER_0_33_225
*1587 FILLER_0_33_229
*1588 FILLER_0_33_248
*1589 FILLER_0_33_252
*1590 FILLER_0_33_278
*1591 FILLER_0_33_299
*1592 FILLER_0_33_3
*1593 FILLER_0_33_317
*1594 FILLER_0_33_332
*1595 FILLER_0_33_36
*1596 FILLER_0_33_54
*1597 FILLER_0_33_57
*1598 FILLER_0_33_72
*1599 FILLER_0_33_85
*1600 FILLER_0_34_124
*1601 FILLER_0_34_128
*1602 FILLER_0_34_132
*1603 FILLER_0_34_141
*1604 FILLER_0_34_148
*1605 FILLER_0_34_15
*1606 FILLER_0_34_152
*1607 FILLER_0_34_161
*1608 FILLER_0_34_185
*1609 FILLER_0_34_195
*1610 FILLER_0_34_197
*1611 FILLER_0_34_208
*1612 FILLER_0_34_256
*1613 FILLER_0_34_268
*1614 FILLER_0_34_27
*1615 FILLER_0_34_276
*1616 FILLER_0_34_288
*1617 FILLER_0_34_296
*1618 FILLER_0_34_3
*1619 FILLER_0_34_304
*1620 FILLER_0_34_32
*1621 FILLER_0_34_330
*1622 FILLER_0_34_334
*1623 FILLER_0_34_49
*1624 FILLER_0_34_62
*1625 FILLER_0_34_7
*1626 FILLER_0_34_70
*1627 FILLER_0_34_78
*1628 FILLER_0_34_85
*1629 FILLER_0_35_107
*1630 FILLER_0_35_111
*1631 FILLER_0_35_113
*1632 FILLER_0_35_125
*1633 FILLER_0_35_131
*1634 FILLER_0_35_15
*1635 FILLER_0_35_167
*1636 FILLER_0_35_185
*1637 FILLER_0_35_211
*1638 FILLER_0_35_236
*1639 FILLER_0_35_24
*1640 FILLER_0_35_270
*1641 FILLER_0_35_275
*1642 FILLER_0_35_279
*1643 FILLER_0_35_28
*1644 FILLER_0_35_292
*1645 FILLER_0_35_3
*1646 FILLER_0_35_303
*1647 FILLER_0_35_310
*1648 FILLER_0_35_52
*1649 FILLER_0_35_90
*1650 FILLER_0_35_95
*1651 FILLER_0_36_106
*1652 FILLER_0_36_138
*1653 FILLER_0_36_144
*1654 FILLER_0_36_15
*1655 FILLER_0_36_153
*1656 FILLER_0_36_161
*1657 FILLER_0_36_191
*1658 FILLER_0_36_195
*1659 FILLER_0_36_197
*1660 FILLER_0_36_209
*1661 FILLER_0_36_213