*SPEF "ieee 1481-1999"
*DESIGN "tt_um_spi_pwm_djuara"
*DATE "11:11:11 Fri 11 11, 1111"
*VENDOR "OpenRCX"
*PROGRAM "Parallel Extraction"
*VERSION "1.0"
*DESIGN_FLOW "NAME_SCOPE LOCAL" "PIN_CAP NONE"
*DIVIDER /
*DELIMITER :
*BUS_DELIMITER []
*T_UNIT 1 NS
*C_UNIT 1 PF
*R_UNIT 1 OHM
*L_UNIT 1 HENRY

*NAME_MAP
*3 clk
*4 ena
*5 rst_n
*6 ui_in[0]
*7 ui_in[1]
*8 ui_in[2]
*9 ui_in[3]
*10 ui_in[4]
*11 ui_in[5]
*12 ui_in[6]
*13 ui_in[7]
*14 uio_in[0]
*15 uio_in[1]
*16 uio_in[2]
*17 uio_in[3]
*18 uio_in[4]
*19 uio_in[5]
*20 uio_in[6]
*21 uio_in[7]
*22 net29
*23 net30
*24 net31
*25 net32
*26 net33
*27 net34
*28 net35
*29 net36
*30 net37
*31 net38
*32 net39
*33 net40
*34 net41
*35 net42
*36 net43
*37 net44
*38 uo_out[0]
*39 uo_out[1]
*40 uo_out[2]
*41 net45
*42 net46
*43 net47
*44 net48
*45 net49
*46 _0000_
*47 _0001_
*48 _0002_
*49 _0003_
*50 _0004_
*51 _0005_
*52 _0006_
*53 _0007_
*54 _0008_
*55 _0009_
*56 _0010_
*57 _0011_
*58 _0012_
*59 _0013_
*60 _0014_
*61 _0015_
*62 _0016_
*63 _0017_
*64 _0018_
*65 _0019_
*66 _0020_
*67 _0021_
*68 _0022_
*69 _0023_
*70 _0024_
*71 _0025_
*72 _0026_
*73 _0027_
*74 _0028_
*75 _0029_
*76 _0030_
*77 _0031_
*78 _0032_
*79 _0033_
*80 _0034_
*81 _0035_
*82 _0036_
*83 _0037_
*84 _0038_
*85 _0039_
*86 _0040_
*87 _0041_
*88 _0042_
*89 _0043_
*90 _0044_
*91 _0045_
*92 _0046_
*93 _0047_
*94 _0048_
*95 _0049_
*96 _0050_
*97 _0051_
*98 _0052_
*99 _0053_
*100 _0054_
*101 _0055_
*102 _0056_
*103 _0057_
*104 _0058_
*105 _0059_
*106 _0060_
*107 _0061_
*108 _0062_
*109 _0063_
*110 _0064_
*111 _0065_
*112 _0066_
*113 _0067_
*114 _0068_
*115 _0069_
*116 _0070_
*117 _0071_
*118 _0072_
*119 _0073_
*120 _0074_
*121 _0075_
*122 _0076_
*123 _0077_
*124 _0078_
*125 _0079_
*126 _0080_
*127 _0081_
*128 _0082_
*129 _0083_
*130 _0084_
*131 _0085_
*132 _0086_
*133 _0087_
*134 _0088_
*135 _0089_
*136 _0090_
*137 _0091_
*138 _0092_
*139 _0093_
*140 _0094_
*141 _0095_
*142 _0096_
*143 _0097_
*144 _0098_
*145 _0099_
*146 _0100_
*147 _0101_
*148 _0102_
*149 _0103_
*150 _0104_
*151 _0105_
*152 _0106_
*153 _0107_
*154 _0108_
*155 _0109_
*156 _0110_
*157 _0111_
*158 _0112_
*159 _0113_
*160 _0114_
*161 _0115_
*162 _0116_
*163 _0117_
*164 _0118_
*165 _0119_
*166 _0120_
*167 _0121_
*168 _0122_
*169 _0123_
*170 _0124_
*171 _0125_
*172 _0126_
*173 _0127_
*174 _0128_
*175 _0129_
*176 _0130_
*177 _0131_
*178 _0132_
*179 _0133_
*180 _0134_
*181 _0135_
*182 _0136_
*183 _0137_
*184 _0138_
*185 _0139_
*186 _0140_
*187 _0141_
*188 _0142_
*189 _0143_
*190 _0144_
*191 _0145_
*192 _0146_
*193 _0147_
*194 _0148_
*195 _0149_
*196 _0150_
*197 _0151_
*198 _0152_
*199 _0153_
*200 _0154_
*201 _0155_
*202 _0156_
*203 _0157_
*204 _0158_
*205 _0159_
*206 _0160_
*207 _0161_
*208 _0162_
*209 _0163_
*210 _0164_
*211 _0165_
*212 _0166_
*213 _0167_
*214 _0168_
*215 _0169_
*216 _0170_
*217 _0171_
*218 _0172_
*219 _0173_
*220 _0174_
*221 _0175_
*222 _0176_
*223 _0177_
*224 _0178_
*225 _0179_
*226 _0180_
*227 _0181_
*228 _0182_
*229 _0183_
*230 _0184_
*231 _0185_
*232 _0186_
*233 _0187_
*234 _0188_
*235 _0189_
*236 _0190_
*237 _0191_
*238 _0192_
*239 _0193_
*240 _0194_
*241 _0195_
*242 _0196_
*243 _0197_
*244 _0198_
*245 _0199_
*246 _0200_
*247 _0201_
*248 _0202_
*249 _0203_
*250 _0204_
*251 _0205_
*252 _0206_
*253 _0207_
*254 _0208_
*255 _0209_
*256 _0210_
*257 _0211_
*258 _0212_
*259 _0213_
*260 _0214_
*261 _0215_
*262 _0216_
*263 _0217_
*264 _0218_
*265 _0219_
*266 _0220_
*267 _0221_
*268 _0222_
*269 _0223_
*270 _0224_
*271 _0225_
*272 _0226_
*273 _0227_
*274 _0228_
*275 _0229_
*276 _0230_
*277 _0231_
*278 _0232_
*279 _0233_
*280 _0234_
*281 _0235_
*282 _0236_
*283 _0237_
*284 _0238_
*285 _0239_
*286 _0240_
*287 _0241_
*288 _0242_
*289 _0243_
*290 _0244_
*291 _0245_
*292 _0246_
*293 _0247_
*294 _0248_
*295 _0249_
*296 _0250_
*297 _0251_
*298 _0252_
*299 _0253_
*300 _0254_
*301 _0255_
*302 _0256_
*303 _0257_
*304 _0258_
*305 _0259_
*306 _0260_
*307 _0261_
*308 _0262_
*309 _0263_
*310 _0264_
*311 _0265_
*312 _0266_
*313 _0267_
*314 _0268_
*315 _0269_
*316 _0270_
*317 _0271_
*318 _0272_
*319 _0273_
*320 _0274_
*321 _0275_
*322 _0276_
*323 _0277_
*324 _0278_
*325 _0279_
*326 _0280_
*327 _0281_
*328 _0282_
*329 _0283_
*330 _0284_
*331 _0285_
*332 _0286_
*333 _0287_
*334 _0288_
*335 _0289_
*336 _0290_
*337 _0291_
*338 _0292_
*339 _0293_
*340 _0294_
*341 _0295_
*342 _0296_
*343 _0297_
*344 _0298_
*345 _0299_
*346 _0300_
*347 _0301_
*348 _0302_
*349 _0303_
*350 _0304_
*351 _0305_
*352 _0306_
*353 _0307_
*354 _0308_
*355 _0309_
*356 _0310_
*357 _0311_
*358 _0312_
*359 _0313_
*360 _0314_
*361 _0315_
*362 _0316_
*363 _0317_
*364 _0318_
*365 _0319_
*366 _0320_
*367 _0321_
*368 _0322_
*369 _0323_
*370 _0324_
*371 _0325_
*372 _0326_
*373 _0327_
*374 _0328_
*375 _0329_
*376 _0330_
*377 _0331_
*378 _0332_
*379 _0333_
*380 _0334_
*381 _0335_
*382 _0336_
*383 _0337_
*384 _0338_
*385 _0339_
*386 _0340_
*387 _0341_
*388 _0342_
*389 _0343_
*390 _0344_
*391 _0345_
*392 _0346_
*393 _0347_
*394 _0348_
*395 _0349_
*396 _0350_
*397 _0351_
*398 _0352_
*399 _0353_
*400 _0354_
*401 _0355_
*402 _0356_
*403 _0357_
*404 _0358_
*405 _0359_
*406 _0360_
*407 _0361_
*408 _0362_
*409 _0363_
*410 _0364_
*411 _0365_
*412 _0366_
*413 _0367_
*414 _0368_
*415 _0369_
*416 _0370_
*417 _0371_
*418 _0372_
*419 _0373_
*420 _0374_
*421 _0375_
*422 _0376_
*423 _0377_
*424 _0378_
*425 _0379_
*426 _0380_
*427 _0381_
*428 _0382_
*429 _0383_
*430 _0384_
*431 _0385_
*432 _0386_
*433 _0387_
*434 _0388_
*435 _0389_
*436 _0390_
*437 _0391_
*438 _0392_
*439 _0393_
*440 _0394_
*441 _0395_
*442 _0396_
*443 _0397_
*444 _0398_
*445 _0399_
*446 _0400_
*447 _0401_
*448 _0402_
*449 _0403_
*450 _0404_
*451 _0405_
*452 _0406_
*453 _0407_
*454 _0408_
*455 _0409_
*456 _0410_
*457 _0411_
*458 _0412_
*459 _0413_
*460 _0414_
*461 _0415_
*462 _0416_
*463 _0417_
*464 _0418_
*465 _0419_
*466 _0420_
*467 _0421_
*468 _0422_
*469 _0423_
*470 _0424_
*471 _0425_
*472 _0426_
*473 _0427_
*474 _0428_
*475 _0429_
*476 _0430_
*477 _0431_
*478 _0432_
*479 _0433_
*480 _0434_
*481 _0435_
*482 _0436_
*483 _0437_
*484 _0438_
*485 _0439_
*486 _0440_
*487 _0441_
*488 _0442_
*489 _0443_
*490 _0444_
*491 _0445_
*492 _0446_
*493 _0447_
*494 _0448_
*495 _0449_
*496 _0450_
*497 _0451_
*498 _0452_
*499 _0453_
*500 _0454_
*501 _0455_
*502 _0456_
*503 _0457_
*504 _0458_
*505 _0459_
*506 _0460_
*507 _0461_
*508 _0462_
*509 _0463_
*510 _0464_
*511 _0465_
*512 _0466_
*513 _0467_
*514 _0468_
*515 _0469_
*516 _0470_
*517 _0471_
*518 _0472_
*519 _0473_
*520 _0474_
*521 _0475_
*522 _0476_
*523 _0477_
*524 _0478_
*525 _0479_
*526 _0480_
*527 _0481_
*528 _0482_
*529 _0483_
*530 _0484_
*531 _0485_
*532 _0486_
*533 _0487_
*534 _0488_
*535 _0489_
*536 _0490_
*537 _0491_
*538 _0492_
*539 _0493_
*540 _0494_
*541 _0495_
*542 _0496_
*543 _0497_
*544 _0498_
*545 _0499_
*546 _0500_
*547 _0501_
*548 _0502_
*549 _0503_
*550 _0504_
*551 _0505_
*552 _0506_
*553 _0507_
*554 _0508_
*555 _0509_
*556 _0510_
*557 _0511_
*558 _0512_
*559 _0513_
*560 _0514_
*561 _0515_
*562 _0516_
*563 _0517_
*564 _0518_
*565 _0519_
*566 _0520_
*567 _0521_
*568 _0522_
*569 _0523_
*570 _0524_
*571 _0525_
*572 _0526_
*573 _0527_
*574 _0528_
*575 _0529_
*576 _0530_
*577 _0531_
*578 _0532_
*579 _0533_
*580 _0534_
*581 _0535_
*582 _0536_
*583 _0537_
*584 _0538_
*585 _0539_
*586 _0540_
*587 _0541_
*588 _0542_
*589 _0543_
*590 _0544_
*591 _0545_
*592 _0546_
*593 _0547_
*594 _0548_
*595 _0549_
*596 _0550_
*597 _0551_
*598 _0552_
*599 _0553_
*600 _0554_
*601 _0555_
*602 _0556_
*603 _0557_
*604 _0558_
*605 _0559_
*606 _0560_
*607 _0561_
*608 _0562_
*609 _0563_
*610 _0564_
*611 _0565_
*612 _0566_
*613 _0567_
*614 _0568_
*615 _0569_
*616 _0570_
*617 _0571_
*618 _0572_
*619 _0573_
*620 _0574_
*621 _0575_
*622 _0576_
*623 _0577_
*624 _0578_
*625 _0579_
*626 _0580_
*627 _0581_
*628 _0582_
*629 _0583_
*630 _0584_
*631 _0585_
*632 _0586_
*633 _0587_
*634 _0588_
*635 _0589_
*636 _0590_
*637 _0591_
*638 _0592_
*639 _0593_
*640 _0594_
*641 _0595_
*642 _0596_
*643 _0597_
*644 _0598_
*645 _0599_
*646 _0600_
*647 _0601_
*648 _0602_
*649 _0603_
*650 _0604_
*651 _0605_
*652 _0606_
*653 _0607_
*654 _0608_
*655 _0609_
*656 _0610_
*657 _0611_
*658 _0612_
*659 _0613_
*660 _0614_
*661 _0615_
*662 _0616_
*663 _0617_
*664 _0618_
*665 _0619_
*666 _0620_
*667 _0621_
*668 _0622_
*669 _0623_
*670 _0624_
*671 _0625_
*672 _0626_
*673 _0627_
*674 _0628_
*675 _0629_
*676 _0630_
*677 _0631_
*678 _0632_
*679 _0633_
*680 _0634_
*681 _0635_
*682 _0636_
*683 _0637_
*684 _0638_
*685 _0639_
*686 _0640_
*687 _0641_
*688 _0642_
*689 _0643_
*690 _0644_
*691 _0645_
*692 _0646_
*693 _0647_
*694 _0648_
*695 _0649_
*696 _0650_
*697 _0651_
*698 _0652_
*699 _0653_
*700 _0654_
*701 _0655_
*702 _0656_
*703 _0657_
*704 _0658_
*705 _0659_
*706 _0660_
*707 _0661_
*708 _0662_
*709 _0663_
*710 _0664_
*711 _0665_
*712 _0666_
*713 _0667_
*714 _0668_
*715 _0669_
*716 _0670_
*717 _0671_
*718 _0672_
*719 _0673_
*720 _0674_
*721 _0675_
*722 _0676_
*723 _0677_
*724 _0678_
*725 _0679_
*726 _0680_
*727 _0681_
*728 _0682_
*729 _0683_
*730 _0684_
*731 _0685_
*732 _0686_
*733 _0687_
*734 _0688_
*735 _0689_
*736 _0690_
*737 _0691_
*738 _0692_
*739 _0693_
*740 _0694_
*741 _0695_
*742 _0696_
*743 _0697_
*744 _0698_
*745 _0699_
*746 _0700_
*747 _0701_
*748 _0702_
*749 _0703_
*750 _0704_
*751 _0705_
*752 _0706_
*753 _0707_
*754 _0708_
*755 _0709_
*756 _0710_
*757 _0711_
*758 _0712_
*759 _0713_
*760 _0714_
*761 _0715_
*762 _0716_
*763 _0717_
*764 _0718_
*765 _0719_
*766 _0720_
*767 _0721_
*768 _0722_
*769 _0723_
*770 _0724_
*771 _0725_
*772 _0726_
*773 _0727_
*774 _0728_
*775 _0729_
*776 _0730_
*777 _0731_
*778 _0732_
*779 _0733_
*780 _0734_
*781 _0735_
*782 _0736_
*783 _0737_
*784 _0738_
*785 _0739_
*786 _0740_
*787 _0741_
*788 _0742_
*789 _0743_
*790 _0744_
*791 _0745_
*792 _0746_
*793 _0747_
*794 _0748_
*795 _0749_
*796 _0750_
*797 _0751_
*798 _0752_
*799 _0753_
*800 _0754_
*801 _0755_
*802 _0756_
*803 _0757_
*804 _0758_
*805 _0759_
*806 _0760_
*807 _0761_
*808 _0762_
*809 _0763_
*810 _0764_
*811 _0765_
*812 _0766_
*813 _0767_
*814 _0768_
*815 _0769_
*816 _0770_
*817 _0771_
*818 _0772_
*819 _0773_
*820 _0774_
*821 _0775_
*822 _0776_
*823 _0777_
*824 _0778_
*825 _0779_
*826 _0780_
*827 _0781_
*828 _0782_
*829 _0783_
*830 _0784_
*831 _0785_
*832 _0786_
*833 _0787_
*834 _0788_
*835 _0789_
*836 _0790_
*837 _0791_
*838 _0792_
*839 _0793_
*840 _0794_
*841 _0795_
*842 _0796_
*843 _0797_
*844 _0798_
*845 _0799_
*846 _0800_
*847 _0801_
*848 _0802_
*849 _0803_
*850 _0804_
*851 _0805_
*852 _0806_
*853 _0807_
*854 _0808_
*855 _0809_
*856 _0810_
*857 _0811_
*858 _0812_
*859 _0813_
*860 _0814_
*861 _0815_
*862 _0816_
*863 _0817_
*864 _0818_
*865 _0819_
*866 _0820_
*867 _0821_
*868 _0822_
*869 _0823_
*870 _0824_
*871 _0825_
*872 _0826_
*873 _0827_
*874 _0828_
*875 _0829_
*876 _0830_
*877 _0831_
*878 _0832_
*879 _0833_
*880 _0834_
*881 _0835_
*882 _0836_
*883 _0837_
*884 _0838_
*885 _0839_
*886 _0840_
*887 _0841_
*888 _0842_
*889 _0843_
*890 _0844_
*891 _0845_
*892 _0846_
*893 _0847_
*894 _0848_
*895 _0849_
*896 _0850_
*897 _0851_
*898 _0852_
*899 _0853_
*900 _0854_
*901 _0855_
*902 _0856_
*903 _0857_
*904 _0858_
*905 _0859_
*906 _0860_
*907 _0861_
*908 _0862_
*909 _0863_
*910 _0864_
*911 _0865_
*912 _0866_
*913 _0867_
*914 _0868_
*915 _0869_
*916 _0870_
*917 _0871_
*918 _0872_
*919 _0873_
*920 _0874_
*921 _0875_
*922 _0876_
*923 _0877_
*924 _0878_
*925 _0879_
*926 _0880_
*927 _0881_
*928 _0882_
*929 _0883_
*930 _0884_
*931 _0885_
*932 _0886_
*933 _0887_
*934 _0888_
*935 _0889_
*936 _0890_
*937 _0891_
*938 _0892_
*939 _0893_
*940 _0894_
*941 _0895_
*942 _0896_
*943 _0897_
*944 _0898_
*945 _0899_
*946 _0900_
*947 _0901_
*948 _0902_
*949 _0903_
*950 _0904_
*951 _0905_
*952 _0906_
*953 _0907_
*954 _0908_
*955 _0909_
*956 _0910_
*957 _0911_
*958 _0912_
*959 clknet_0_clk
*960 clknet_4_0_0_clk
*961 clknet_4_10_0_clk
*962 clknet_4_11_0_clk
*963 clknet_4_12_0_clk
*964 clknet_4_13_0_clk
*965 clknet_4_14_0_clk
*966 clknet_4_15_0_clk
*967 clknet_4_1_0_clk
*968 clknet_4_2_0_clk
*969 clknet_4_3_0_clk
*970 clknet_4_4_0_clk
*971 clknet_4_5_0_clk
*972 clknet_4_6_0_clk
*973 clknet_4_7_0_clk
*974 clknet_4_8_0_clk
*975 clknet_4_9_0_clk
*976 data_wr_z1\[0\]
*977 data_wr_z1\[1\]
*978 data_wr_z1\[2\]
*979 data_wr_z1\[3\]
*980 data_wr_z1\[4\]
*981 data_wr_z1\[5\]
*982 data_wr_z1\[6\]
*983 data_wr_z1\[7\]
*984 dev_regs\[0\]\[0\]
*985 dev_regs\[0\]\[1\]
*986 dev_regs\[0\]\[2\]
*987 dev_regs\[0\]\[3\]
*988 dev_regs\[0\]\[4\]
*989 dev_regs\[0\]\[5\]
*990 dev_regs\[0\]\[6\]
*991 dev_regs\[0\]\[7\]
*992 dev_regs\[1\]\[0\]
*993 dev_regs\[1\]\[1\]
*994 dev_regs\[1\]\[2\]
*995 dev_regs\[1\]\[3\]
*996 dev_regs\[1\]\[4\]
*997 dev_regs\[1\]\[5\]
*998 dev_regs\[1\]\[6\]
*999 dev_regs\[1\]\[7\]
*1000 net1
*1001 net10
*1002 net11
*1003 net12
*1004 net13
*1005 net14
*1006 net15
*1007 net16
*1008 net17
*1009 net18
*1010 net19
*1011 net2
*1012 net20
*1013 net21
*1014 net22
*1015 net23
*1016 net24
*1017 net25
*1018 net26
*1019 net27
*1020 net28
*1021 net3
*1022 net4
*1023 net5
*1024 net50
*1025 net51
*1026 net52
*1027 net53
*1028 net54
*1029 net55
*1030 net56
*1031 net57
*1032 net58
*1033 net59
*1034 net6
*1035 net60
*1036 net61
*1037 net62
*1038 net63
*1039 net64
*1040 net65
*1041 net66
*1042 net67
*1043 net7
*1044 net8
*1045 net9
*1046 pwm_inst\.counter\[0\]
*1047 pwm_inst\.counter\[10\]
*1048 pwm_inst\.counter\[11\]
*1049 pwm_inst\.counter\[12\]
*1050 pwm_inst\.counter\[13\]
*1051 pwm_inst\.counter\[14\]
*1052 pwm_inst\.counter\[15\]
*1053 pwm_inst\.counter\[16\]
*1054 pwm_inst\.counter\[17\]
*1055 pwm_inst\.counter\[18\]
*1056 pwm_inst\.counter\[19\]
*1057 pwm_inst\.counter\[1\]
*1058 pwm_inst\.counter\[20\]
*1059 pwm_inst\.counter\[21\]
*1060 pwm_inst\.counter\[22\]
*1061 pwm_inst\.counter\[23\]
*1062 pwm_inst\.counter\[24\]
*1063 pwm_inst\.counter\[25\]
*1064 pwm_inst\.counter\[26\]
*1065 pwm_inst\.counter\[27\]
*1066 pwm_inst\.counter\[28\]
*1067 pwm_inst\.counter\[29\]
*1068 pwm_inst\.counter\[2\]
*1069 pwm_inst\.counter\[30\]
*1070 pwm_inst\.counter\[31\]
*1071 pwm_inst\.counter\[3\]
*1072 pwm_inst\.counter\[4\]
*1073 pwm_inst\.counter\[5\]
*1074 pwm_inst\.counter\[6\]
*1075 pwm_inst\.counter\[7\]
*1076 pwm_inst\.counter\[8\]
*1077 pwm_inst\.counter\[9\]
*1078 pwm_inst\.cycles_freq\[0\]
*1079 pwm_inst\.cycles_freq\[10\]
*1080 pwm_inst\.cycles_freq\[11\]
*1081 pwm_inst\.cycles_freq\[12\]
*1082 pwm_inst\.cycles_freq\[13\]
*1083 pwm_inst\.cycles_freq\[14\]
*1084 pwm_inst\.cycles_freq\[15\]
*1085 pwm_inst\.cycles_freq\[16\]
*1086 pwm_inst\.cycles_freq\[17\]
*1087 pwm_inst\.cycles_freq\[18\]
*1088 pwm_inst\.cycles_freq\[19\]
*1089 pwm_inst\.cycles_freq\[1\]
*1090 pwm_inst\.cycles_freq\[20\]
*1091 pwm_inst\.cycles_freq\[21\]
*1092 pwm_inst\.cycles_freq\[22\]
*1093 pwm_inst\.cycles_freq\[23\]
*1094 pwm_inst\.cycles_freq\[24\]
*1095 pwm_inst\.cycles_freq\[25\]
*1096 pwm_inst\.cycles_freq\[26\]
*1097 pwm_inst\.cycles_freq\[27\]
*1098 pwm_inst\.cycles_freq\[28\]
*1099 pwm_inst\.cycles_freq\[29\]
*1100 pwm_inst\.cycles_freq\[2\]
*1101 pwm_inst\.cycles_freq\[30\]
*1102 pwm_inst\.cycles_freq\[31\]
*1103 pwm_inst\.cycles_freq\[3\]
*1104 pwm_inst\.cycles_freq\[4\]
*1105 pwm_inst\.cycles_freq\[5\]
*1106 pwm_inst\.cycles_freq\[6\]
*1107 pwm_inst\.cycles_freq\[7\]
*1108 pwm_inst\.cycles_freq\[8\]
*1109 pwm_inst\.cycles_freq\[9\]
*1110 pwm_inst\.cycles_high\[0\]
*1111 pwm_inst\.cycles_high\[10\]
*1112 pwm_inst\.cycles_high\[11\]
*1113 pwm_inst\.cycles_high\[12\]
*1114 pwm_inst\.cycles_high\[13\]
*1115 pwm_inst\.cycles_high\[14\]
*1116 pwm_inst\.cycles_high\[15\]
*1117 pwm_inst\.cycles_high\[16\]
*1118 pwm_inst\.cycles_high\[17\]
*1119 pwm_inst\.cycles_high\[18\]
*1120 pwm_inst\.cycles_high\[19\]
*1121 pwm_inst\.cycles_high\[1\]
*1122 pwm_inst\.cycles_high\[20\]
*1123 pwm_inst\.cycles_high\[21\]
*1124 pwm_inst\.cycles_high\[22\]
*1125 pwm_inst\.cycles_high\[23\]
*1126 pwm_inst\.cycles_high\[24\]
*1127 pwm_inst\.cycles_high\[25\]
*1128 pwm_inst\.cycles_high\[26\]
*1129 pwm_inst\.cycles_high\[27\]
*1130 pwm_inst\.cycles_high\[28\]
*1131 pwm_inst\.cycles_high\[29\]
*1132 pwm_inst\.cycles_high\[2\]
*1133 pwm_inst\.cycles_high\[30\]
*1134 pwm_inst\.cycles_high\[31\]
*1135 pwm_inst\.cycles_high\[3\]
*1136 pwm_inst\.cycles_high\[4\]
*1137 pwm_inst\.cycles_high\[5\]
*1138 pwm_inst\.cycles_high\[6\]
*1139 pwm_inst\.cycles_high\[7\]
*1140 pwm_inst\.cycles_high\[8\]
*1141 pwm_inst\.cycles_high\[9\]
*1142 pwm_inst\.pwm
*1143 spi_own_clock_ins\.addr_reg\[0\]
*1144 spi_own_clock_ins\.addr_reg\[1\]
*1145 spi_own_clock_ins\.addr_reg\[2\]
*1146 spi_own_clock_ins\.addr_reg\[3\]
*1147 spi_own_clock_ins\.data_rd\[0\]
*1148 spi_own_clock_ins\.data_rd\[1\]
*1149 spi_own_clock_ins\.data_rd\[2\]
*1150 spi_own_clock_ins\.data_rd\[3\]
*1151 spi_own_clock_ins\.data_rd\[4\]
*1152 spi_own_clock_ins\.data_rd\[5\]
*1153 spi_own_clock_ins\.data_rd\[6\]
*1154 spi_own_clock_ins\.data_rd\[7\]
*1155 spi_own_clock_ins\.data_rd_z1\[0\]
*1156 spi_own_clock_ins\.data_rd_z1\[1\]
*1157 spi_own_clock_ins\.data_rd_z1\[2\]
*1158 spi_own_clock_ins\.data_rd_z1\[3\]
*1159 spi_own_clock_ins\.data_rd_z1\[4\]
*1160 spi_own_clock_ins\.data_rd_z1\[5\]
*1161 spi_own_clock_ins\.data_rd_z1\[6\]
*1162 spi_own_clock_ins\.data_rd_z1\[7\]
*1163 spi_own_clock_ins\.index\[0\]
*1164 spi_own_clock_ins\.index\[1\]
*1165 spi_own_clock_ins\.index\[2\]
*1166 spi_own_clock_ins\.index\[3\]
*1167 spi_own_clock_ins\.miso
*1168 spi_own_clock_ins\.spi_data_reg\[0\]
*1169 spi_own_clock_ins\.spi_data_reg\[1\]
*1170 spi_own_clock_ins\.spi_data_reg\[2\]
*1171 spi_own_clock_ins\.spi_data_reg\[3\]
*1172 spi_own_clock_ins\.spi_data_reg\[4\]
*1173 spi_own_clock_ins\.spi_data_reg\[5\]
*1174 spi_own_clock_ins\.spi_data_reg\[6\]
*1175 spi_own_clock_ins\.spi_data_reg\[7\]
*1176 spi_own_clock_ins\.spi_state\[0\]
*1177 spi_own_clock_ins\.spi_state\[1\]
*1178 spi_own_clock_ins\.spi_state\[2\]
*1179 spi_own_clock_ins\.spi_state\[3\]
*1180 spi_sampled_ins\.addr_reg\[0\]
*1181 spi_sampled_ins\.addr_reg\[1\]
*1182 spi_sampled_ins\.addr_reg\[2\]
*1183 spi_sampled_ins\.addr_reg\[3\]
*1184 spi_sampled_ins\.index\[0\]
*1185 spi_sampled_ins\.index\[1\]
*1186 spi_sampled_ins\.index\[2\]
*1187 spi_sampled_ins\.index\[3\]
*1188 spi_sampled_ins\.miso
*1189 spi_sampled_ins\.neg_edge_det\.signal_z1
*1190 spi_sampled_ins\.spi_data_reg\[0\]
*1191 spi_sampled_ins\.spi_data_reg\[1\]
*1192 spi_sampled_ins\.spi_data_reg\[2\]
*1193 spi_sampled_ins\.spi_data_reg\[3\]
*1194 spi_sampled_ins\.spi_data_reg\[4\]
*1195 spi_sampled_ins\.spi_data_reg\[5\]
*1196 spi_sampled_ins\.spi_data_reg\[6\]
*1197 spi_sampled_ins\.spi_data_reg\[7\]
*1198 spi_sampled_ins\.spi_state\[0\]
*1199 spi_sampled_ins\.spi_state\[1\]
*1200 ANTENNA_1
*1201 ANTENNA_2
*1202 ANTENNA_3
*1203 ANTENNA_4
*1204 ANTENNA_5
*1205 FILLER_0_0_107
*1206 FILLER_0_0_111
*1207 FILLER_0_0_137
*1208 FILLER_0_0_141
*1209 FILLER_0_0_15
*1210 FILLER_0_0_165
*1211 FILLER_0_0_169
*1212 FILLER_0_0_178
*1213 FILLER_0_0_202
*1214 FILLER_0_0_214
*1215 FILLER_0_0_222
*1216 FILLER_0_0_249
*1217 FILLER_0_0_253
*1218 FILLER_0_0_265
*1219 FILLER_0_0_27
*1220 FILLER_0_0_277
*1221 FILLER_0_0_281
*1222 FILLER_0_0_29
*1223 FILLER_0_0_3
*1224 FILLER_0_0_304
*1225 FILLER_0_0_312
*1226 FILLER_0_0_324
*1227 FILLER_0_0_332
*1228 FILLER_0_0_41
*1229 FILLER_0_0_53
*1230 FILLER_0_0_57
*1231 FILLER_0_0_69
*1232 FILLER_0_0_76
*1233 FILLER_0_0_85
*1234 FILLER_0_10_108
*1235 FILLER_0_10_11
*1236 FILLER_0_10_114
*1237 FILLER_0_10_139
*1238 FILLER_0_10_141
*1239 FILLER_0_10_163
*1240 FILLER_0_10_188
*1241 FILLER_0_10_193
*1242 FILLER_0_10_197
*1243 FILLER_0_10_208
*1244 FILLER_0_10_235
*1245 FILLER_0_10_247
*1246 FILLER_0_10_25
*1247 FILLER_0_10_29
*1248 FILLER_0_10_3
*1249 FILLER_0_10_312
*1250 FILLER_0_10_321
*1251 FILLER_0_10_35
*1252 FILLER_0_10_39
*1253 FILLER_0_10_43
*1254 FILLER_0_10_51
*1255 FILLER_0_10_64
*1256 FILLER_0_10_96
*1257 FILLER_0_11_113
*1258 FILLER_0_11_12
*1259 FILLER_0_11_143
*1260 FILLER_0_11_147
*1261 FILLER_0_11_160
*1262 FILLER_0_11_169
*1263 FILLER_0_11_180
*1264 FILLER_0_11_192
*1265 FILLER_0_11_198
*1266 FILLER_0_11_225
*1267 FILLER_0_11_233
*1268 FILLER_0_11_260
*1269 FILLER_0_11_27
*1270 FILLER_0_11_284
*1271 FILLER_0_11_292
*1272 FILLER_0_11_296
*1273 FILLER_0_11_3
*1274 FILLER_0_11_303
*1275 FILLER_0_11_309
*1276 FILLER_0_11_332
*1277 FILLER_0_11_35
*1278 FILLER_0_11_41
*1279 FILLER_0_11_49
*1280 FILLER_0_11_54
*1281 FILLER_0_11_57
*1282 FILLER_0_11_61
*1283 FILLER_0_11_94
*1284 FILLER_0_12_141
*1285 FILLER_0_12_147
*1286 FILLER_0_12_15
*1287 FILLER_0_12_241
*1288 FILLER_0_12_249
*1289 FILLER_0_12_25
*1290 FILLER_0_12_268
*1291 FILLER_0_12_280
*1292 FILLER_0_12_298
*1293 FILLER_0_12_3
*1294 FILLER_0_12_306
*1295 FILLER_0_12_322
*1296 FILLER_0_12_33
*1297 FILLER_0_12_330
*1298 FILLER_0_12_334
*1299 FILLER_0_12_52
*1300 FILLER_0_12_60
*1301 FILLER_0_12_82
*1302 FILLER_0_13_106
*1303 FILLER_0_13_122
*1304 FILLER_0_13_126
*1305 FILLER_0_13_134
*1306 FILLER_0_13_15
*1307 FILLER_0_13_158
*1308 FILLER_0_13_167
*1309 FILLER_0_13_181
*1310 FILLER_0_13_205
*1311 FILLER_0_13_218
*1312 FILLER_0_13_234
*1313 FILLER_0_13_249
*1314 FILLER_0_13_255
*1315 FILLER_0_13_281
*1316 FILLER_0_13_285
*1317 FILLER_0_13_3
*1318 FILLER_0_13_306
*1319 FILLER_0_13_321
*1320 FILLER_0_13_330
*1321 FILLER_0_13_334
*1322 FILLER_0_13_44
*1323 FILLER_0_13_64
*1324 FILLER_0_13_72
*1325 FILLER_0_13_9
*1326 FILLER_0_13_95
*1327 FILLER_0_14_120
*1328 FILLER_0_14_134
*1329 FILLER_0_14_153
*1330 FILLER_0_14_159
*1331 FILLER_0_14_181
*1332 FILLER_0_14_195
*1333 FILLER_0_14_197
*1334 FILLER_0_14_205
*1335 FILLER_0_14_231
*1336 FILLER_0_14_246
*1337 FILLER_0_14_253
*1338 FILLER_0_14_26
*1339 FILLER_0_14_265
*1340 FILLER_0_14_296
*1341 FILLER_0_14_32
*1342 FILLER_0_14_320
*1343 FILLER_0_14_332
*1344 FILLER_0_14_67
*1345 FILLER_0_14_71
*1346 FILLER_0_14_98
*1347 FILLER_0_15_106
*1348 FILLER_0_15_113
*1349 FILLER_0_15_117
*1350 FILLER_0_15_138
*1351 FILLER_0_15_150
*1352 FILLER_0_15_161
*1353 FILLER_0_15_167
*1354 FILLER_0_15_169
*1355 FILLER_0_15_173
*1356 FILLER_0_15_181
*1357 FILLER_0_15_193
*1358 FILLER_0_15_217
*1359 FILLER_0_15_223
*1360 FILLER_0_15_25
*1361 FILLER_0_15_269
*1362 FILLER_0_15_276
*1363 FILLER_0_15_281
*1364 FILLER_0_15_285
*1365 FILLER_0_15_3
*1366 FILLER_0_15_309
*1367 FILLER_0_15_47
*1368 FILLER_0_15_75
*1369 FILLER_0_15_79
*1370 FILLER_0_16_119
*1371 FILLER_0_16_138
*1372 FILLER_0_16_141
*1373 FILLER_0_16_159
*1374 FILLER_0_16_170
*1375 FILLER_0_16_195
*1376 FILLER_0_16_213
*1377 FILLER_0_16_235
*1378 FILLER_0_16_24
*1379 FILLER_0_16_242
*1380 FILLER_0_16_251
*1381 FILLER_0_16_262
*1382 FILLER_0_16_29
*1383 FILLER_0_16_296
*1384 FILLER_0_16_321
*1385 FILLER_0_16_327
*1386 FILLER_0_16_334
*1387 FILLER_0_16_35
*1388 FILLER_0_16_47
*1389 FILLER_0_16_72
*1390 FILLER_0_16_77
*1391 FILLER_0_16_83
*1392 FILLER_0_16_85
*1393 FILLER_0_16_93
*1394 FILLER_0_17_10
*1395 FILLER_0_17_100
*1396 FILLER_0_17_111
*1397 FILLER_0_17_122
*1398 FILLER_0_17_130
*1399 FILLER_0_17_139
*1400 FILLER_0_17_163
*1401 FILLER_0_17_167
*1402 FILLER_0_17_18
*1403 FILLER_0_17_225
*1404 FILLER_0_17_229
*1405 FILLER_0_17_245
*1406 FILLER_0_17_279
*1407 FILLER_0_17_281
*1408 FILLER_0_17_3
*1409 FILLER_0_17_30
*1410 FILLER_0_17_308
*1411 FILLER_0_17_334
*1412 FILLER_0_17_42
*1413 FILLER_0_17_50
*1414 FILLER_0_17_67
*1415 FILLER_0_17_83
*1416 FILLER_0_17_96
*1417 FILLER_0_18_105
*1418 FILLER_0_18_135
*1419 FILLER_0_18_139
*1420 FILLER_0_18_155
*1421 FILLER_0_18_172
*1422 FILLER_0_18_181
*1423 FILLER_0_18_191
*1424 FILLER_0_18_195
*1425 FILLER_0_18_197
*1426 FILLER_0_18_201
*1427 FILLER_0_18_210
*1428 FILLER_0_18_214
*1429 FILLER_0_18_222
*1430 FILLER_0_18_236
*1431 FILLER_0_18_247
*1432 FILLER_0_18_251
*1433 FILLER_0_18_253
*1434 FILLER_0_18_26
*1435 FILLER_0_18_263
*1436 FILLER_0_18_269
*1437 FILLER_0_18_279
*1438 FILLER_0_18_291
*1439 FILLER_0_18_303
*1440 FILLER_0_18_307
*1441 FILLER_0_18_309
*1442 FILLER_0_18_50
*1443 FILLER_0_18_58
*1444 FILLER_0_18_64
*1445 FILLER_0_18_74
*1446 FILLER_0_19_108
*1447 FILLER_0_19_116
*1448 FILLER_0_19_130
*1449 FILLER_0_19_15
*1450 FILLER_0_19_155
*1451 FILLER_0_19_176
*1452 FILLER_0_19_194
*1453 FILLER_0_19_213
*1454 FILLER_0_19_221
*1455 FILLER_0_19_233
*1456 FILLER_0_19_279
*1457 FILLER_0_19_28
*1458 FILLER_0_19_3
*1459 FILLER_0_19_323
*1460 FILLER_0_19_55
*1461 FILLER_0_19_9
*1462 FILLER_0_1_101
*1463 FILLER_0_1_11
*1464 FILLER_0_1_113
*1465 FILLER_0_1_166
*1466 FILLER_0_1_169
*1467 FILLER_0_1_21
*1468 FILLER_0_1_241
*1469 FILLER_0_1_3
*1470 FILLER_0_1_304
*1471 FILLER_0_1_327
*1472 FILLER_0_1_33
*1473 FILLER_0_1_48
*1474 FILLER_0_1_52
*1475 FILLER_0_1_90
*1476 FILLER_0_1_94
*1477 FILLER_0_20_134
*1478 FILLER_0_20_141
*1479 FILLER_0_20_153
*1480 FILLER_0_20_159
*1481 FILLER_0_20_169
*1482 FILLER_0_20_181
*1483 FILLER_0_20_192
*1484 FILLER_0_20_197
*1485 FILLER_0_20_206
*1486 FILLER_0_20_228
*1487 FILLER_0_20_238
*1488 FILLER_0_20_246
*1489 FILLER_0_20_253
*1490 FILLER_0_20_257
*1491 FILLER_0_20_261
*1492 FILLER_0_20_273
*1493 FILLER_0_20_3
*1494 FILLER_0_20_305
*1495 FILLER_0_20_309
*1496 FILLER_0_20_41
*1497 FILLER_0_20_51
*1498 FILLER_0_20_80
*1499 FILLER_0_21_107
*1500 FILLER_0_21_111
*1501 FILLER_0_21_113
*1502 FILLER_0_21_117
*1503 FILLER_0_21_127
*1504 FILLER_0_21_13
*1505 FILLER_0_21_131
*1506 FILLER_0_21_154
*1507 FILLER_0_21_165
*1508 FILLER_0_21_169
*1509 FILLER_0_21_17
*1510 FILLER_0_21_175
*1511 FILLER_0_21_197
*1512 FILLER_0_21_203
*1513 FILLER_0_21_213
*1514 FILLER_0_21_221
*1515 FILLER_0_21_233
*1516 FILLER_0_21_279
*1517 FILLER_0_21_28
*1518 FILLER_0_21_284
*1519 FILLER_0_21_3
*1520 FILLER_0_21_321
*1521 FILLER_0_21_334
*1522 FILLER_0_21_34
*1523 FILLER_0_21_57
*1524 FILLER_0_21_86
*1525 FILLER_0_21_9
*1526 FILLER_0_22_106
*1527 FILLER_0_22_129
*1528 FILLER_0_22_141
*1529 FILLER_0_22_152
*1530 FILLER_0_22_177
*1531 FILLER_0_22_181
*1532 FILLER_0_22_190
*1533 FILLER_0_22_206
*1534 FILLER_0_22_228
*1535 FILLER_0_22_236
*1536 FILLER_0_22_251
*1537 FILLER_0_22_253
*1538 FILLER_0_22_26
*1539 FILLER_0_22_304
*1540 FILLER_0_22_333
*1541 FILLER_0_22_50
*1542 FILLER_0_22_83
*1543 FILLER_0_22_85
*1544 FILLER_0_23_108
*1545 FILLER_0_23_113
*1546 FILLER_0_23_117
*1547 FILLER_0_23_129
*1548 FILLER_0_23_166
*1549 FILLER_0_23_169
*1550 FILLER_0_23_193
*1551 FILLER_0_23_233
*1552 FILLER_0_23_281
*1553 FILLER_0_23_285
*1554 FILLER_0_23_29
*1555 FILLER_0_23_3
*1556 FILLER_0_23_319
*1557 FILLER_0_23_331
*1558 FILLER_0_23_51
*1559 FILLER_0_23_55
*1560 FILLER_0_23_7
*1561 FILLER_0_23_95
*1562 FILLER_0_24_10
*1563 FILLER_0_24_112
*1564 FILLER_0_24_126
*1565 FILLER_0_24_16
*1566 FILLER_0_24_172
*1567 FILLER_0_24_191
*1568 FILLER_0_24_195
*1569 FILLER_0_24_229
*1570 FILLER_0_24_246
*1571 FILLER_0_24_253
*1572 FILLER_0_24_26
*1573 FILLER_0_24_274
*1574 FILLER_0_24_29
*1575 FILLER_0_24_290
*1576 FILLER_0_24_3
*1577 FILLER_0_24_301
*1578 FILLER_0_24_307
*1579 FILLER_0_24_309
*1580 FILLER_0_24_47
*1581 FILLER_0_24_72
*1582 FILLER_0_24_83
*1583 FILLER_0_25_105
*1584 FILLER_0_25_111
*1585 FILLER_0_25_134
*1586 FILLER_0_25_169
*1587 FILLER_0_25_191
*1588 FILLER_0_25_211
*1589 FILLER_0_25_220
*1590 FILLER_0_25_225
*1591 FILLER_0_25_238
*1592 FILLER_0_25_242
*1593 FILLER_0_25_272
*1594 FILLER_0_25_299
*1595 FILLER_0_25_47
*1596 FILLER_0_25_53
*1597 FILLER_0_25_66
*1598 FILLER_0_25_93
*1599 FILLER_0_26_109
*1600 FILLER_0_26_126
*1601 FILLER_0_26_13
*1602 FILLER_0_26_135
*1603 FILLER_0_26_139
*1604 FILLER_0_26_141
*1605 FILLER_0_26_170
*1606 FILLER_0_26_192
*1607 FILLER_0_26_20
*1608 FILLER_0_26_217
*1609 FILLER_0_26_240
*1610 FILLER_0_26_251
*1611 FILLER_0_26_287
*1612 FILLER_0_26_29
*1613 FILLER_0_26_295
*1614 FILLER_0_26_3
*1615 FILLER_0_26_307
*1616 FILLER_0_26_67
*1617 FILLER_0_26_71
*1618 FILLER_0_26_89
*1619 FILLER_0_26_9
*1620 FILLER_0_26_95
*1621 FILLER_0_26_99
*1622 FILLER_0_27_113
*1623 FILLER_0_27_117
*1624 FILLER_0_27_125
*1625 FILLER_0_27_178
*1626 FILLER_0_27_196
*1627 FILLER_0_27_231
*1628 FILLER_0_27_244
*1629 FILLER_0_27_253
*1630 FILLER_0_27_26
*1631 FILLER_0_27_261
*1632 FILLER_0_27_269
*1633 FILLER_0_27_276
*1634 FILLER_0_27_3
*1635 FILLER_0_27_303
*1636 FILLER_0_27_314
*1637 FILLER_0_27_322
*1638 FILLER_0_27_329
*1639 FILLER_0_27_36
*1640 FILLER_0_27_72
*1641 FILLER_0_27_77
*1642 FILLER_0_27_89
*1643 FILLER_0_28_126
*1644 FILLER_0_28_137
*1645 FILLER_0_28_141
*1646 FILLER_0_28_161
*1647 FILLER_0_28_192
*1648 FILLER_0_28_197
*1649 FILLER_0_28_211
*1650 FILLER_0_28_236
*1651 FILLER_0_28_240
*1652 FILLER_0_28_248
*1653 FILLER_0_28_260
*1654 FILLER_0_28_27
*1655 FILLER_0_28_29
*1656 FILLER_0_28_3
*1657 FILLER_0_28_35
*1658 FILLER_0_28_50
*1659 FILLER_0_28_72
*1660 FILLER_0_28_82
*1661 FILLER_0_28_88
*1662 FILLER_0_28_96
*1663 FILLER_0_29_127
*1664 FILLER_0_29_14
*1665 FILLER_0_29_172
*1666 FILLER_0_29_18
*1667 FILLER_0_29_189
*1668 FILLER_0_29_204
*1669 FILLER_0_29_212
*1670 FILLER_0_29_218
*1671 FILLER_0_29_222
*1672 FILLER_0_29_234
*1673 FILLER_0_29_241
*1674 FILLER_0_29_251
*1675 FILLER_0_29_262
*1676 FILLER_0_29_267
*1677 FILLER_0_29_279
*1678 FILLER_0_29_28
*1679 FILLER_0_29_281
*1680 FILLER_0_29_297
*1681 FILLER_0_29_3
*1682 FILLER_0_29_305
*1683 FILLER_0_29_319
*1684 FILLER_0_29_325
*1685 FILLER_0_29_333
*1686 FILLER_0_29_47
*1687 FILLER_0_29_7
*1688 FILLER_0_29_71
*1689 FILLER_0_2_102
*1690 FILLER_0_2_116
*1691 FILLER_0_2_128
*1692 FILLER_0_2_134
*1693 FILLER_0_2_138
*1694 FILLER_0_2_141
*1695 FILLER_0_2_152
*1696 FILLER_0_2_179
*1697 FILLER_0_2_192
*1698 FILLER_0_2_197
*1699 FILLER_0_2_204
*1700 FILLER_0_2_208
*1701 FILLER_0_2_217
*1702 FILLER_0_2_225
*1703 FILLER_0_2_234
*1704 FILLER_0_2_238
*1705 FILLER_0_2_253
*1706 FILLER_0_2_29
*1707 FILLER_0_2_292
*1708 FILLER_0_2_3
*1709 FILLER_0_2_306
*1710 FILLER_0_2_309
*1711 FILLER_0_2_333
*1712 FILLER_0_2_40
*1713 FILLER_0_2_62
*1714 FILLER_0_2_80
*1715 FILLER_0_30_102
*1716 FILLER_0_30_131
*1717 FILLER_0_30_147
*1718 FILLER_0_30_194
*1719 FILLER_0_30_220
*1720 FILLER_0_30_228
*1721 FILLER_0_30_253
*1722 FILLER_0_30_29
*1723 FILLER_0_30_298
*1724 FILLER_0_30_3
*1725 FILLER_0_30_312
*1726 FILLER_0_30_53
*1727 FILLER_0_30_64
*1728 FILLER_0_30_83
*1729 FILLER_0_31_10
*1730 FILLER_0_31_111
*1731 FILLER_0_31_182
*1732 FILLER_0_31_20
*1733 FILLER_0_31_203
*1734 FILLER_0_31_209