*SPEF "ieee 1481-1999"
*DESIGN "tt_um_nicklausthompson_twi_monitor"
*DATE "17:44:19 Friday April 19, 2024"
*VENDOR "The OpenROAD Project"
*PROGRAM "OpenROAD"
*VERSION "0889970d1790a2617e69f253221b8bd7626e51dc"
*DESIGN_FLOW "NAME_SCOPE LOCAL" "PIN_CAP NONE"
*DIVIDER /
*DELIMITER :
*BUS_DELIMITER []
*T_UNIT 1 NS
*C_UNIT 1 PF
*R_UNIT 1 OHM
*L_UNIT 1 HENRY

*NAME_MAP
*3 clk
*4 ena
*5 rst_n
*6 ui_in[0]
*7 ui_in[1]
*8 ui_in[2]
*9 ui_in[3]
*10 ui_in[4]
*11 ui_in[5]
*12 ui_in[6]
*13 ui_in[7]
*14 uio_in[0]
*15 uio_in[1]
*16 uio_in[2]
*17 uio_in[3]
*18 uio_in[4]
*19 uio_in[5]
*20 uio_in[6]
*21 uio_in[7]
*22 net7
*23 net8
*24 net9
*25 net10
*26 net11
*27 net12
*28 net13
*29 net14
*30 net15
*31 net16
*32 net17
*33 net18
*34 net19
*35 net20
*36 net21
*37 net22
*38 uo_out[0]
*39 net23
*40 net24
*41 net25
*42 net26
*43 net27
*44 net28
*45 net29
*46 SCL_buffer\.ps\[0\]
*47 SCL_buffer\.ps\[2\]
*48 SCL_buffer\.user_out
*49 SDA_buffer\.ps\[0\]
*50 SDA_buffer\.ps\[2\]
*51 SDA_buffer\.user_out
*52 _000_
*53 _001_
*54 _002_
*55 _003_
*56 _004_
*57 _005_
*58 _006_
*59 _007_
*60 _008_
*61 _009_
*62 _010_
*63 _011_
*64 _012_
*65 _013_
*66 _014_
*67 _015_
*68 _016_
*69 _017_
*70 _018_
*71 _019_
*72 _020_
*73 _021_
*74 _022_
*75 _023_
*76 _024_
*77 _025_
*78 _026_
*79 _027_
*80 _028_
*81 _029_
*82 _030_
*83 _031_
*84 _032_
*85 _033_
*86 _034_
*87 _035_
*88 _036_
*89 _037_
*90 _038_
*91 _039_
*92 _040_
*93 _041_
*94 _042_
*95 _043_
*96 _044_
*97 _045_
*98 _046_
*99 _047_
*100 _048_
*101 _049_
*102 _050_
*103 _051_
*104 _052_
*105 _053_
*106 _054_
*107 _055_
*108 _056_
*109 _057_
*110 _058_
*111 _059_
*112 _060_
*113 _061_
*114 _062_
*115 _063_
*116 _064_
*117 _065_
*118 _066_
*119 _067_
*120 _068_
*121 _069_
*122 _070_
*123 _071_
*124 _072_
*125 _073_
*126 _074_
*127 _075_
*128 _076_
*129 _077_
*130 _078_
*131 _079_
*132 _080_
*133 _081_
*134 _082_
*135 _083_
*136 _084_
*137 _085_
*138 _086_
*139 _087_
*140 _088_
*141 _089_
*142 _090_
*143 _091_
*144 _092_
*145 _093_
*146 _094_
*147 _095_
*148 _096_
*149 _097_
*150 _098_
*151 _099_
*152 _100_
*153 _101_
*154 _102_
*155 _103_
*156 _104_
*157 _105_
*158 _106_
*159 _107_
*160 _108_
*161 _109_
*162 _110_
*163 _111_
*164 _112_
*165 _113_
*166 _114_
*167 _115_
*168 _116_
*169 _117_
*170 _118_
*171 _119_
*172 _120_
*173 _121_
*174 _122_
*175 _123_
*176 _124_
*177 _125_
*178 _126_
*179 _127_
*180 _128_
*181 _129_
*182 _130_
*183 _131_
*184 _132_
*185 _133_
*186 _134_
*187 _135_
*188 _136_
*189 _137_
*190 _138_
*191 _139_
*192 _140_
*193 _141_
*194 _142_
*195 _143_
*196 _144_
*197 _145_
*198 _146_
*199 _147_
*200 _148_
*201 _149_
*202 _150_
*203 _151_
*204 _152_
*205 _153_
*206 _154_
*207 _155_
*208 _156_
*209 _157_
*210 _158_
*211 _159_
*212 _160_
*213 _161_
*214 _162_
*215 _163_
*216 _164_
*217 _165_
*218 _166_
*219 _167_
*220 _168_
*221 _169_
*222 _170_
*223 _171_
*224 _172_
*225 _173_
*226 _174_
*227 _175_
*228 _176_
*229 _177_
*230 _178_
*231 _179_
*232 _180_
*233 _181_
*234 _182_
*235 _183_
*236 _184_
*237 _185_
*238 _186_
*239 _187_
*240 _188_
*241 _189_
*242 _190_
*243 _191_
*244 _192_
*245 _193_
*246 _194_
*247 _195_
*248 _196_
*249 _197_
*250 _198_
*251 _199_
*252 _200_
*253 _201_
*254 _202_
*255 _203_
*256 _204_
*257 _205_
*258 _206_
*259 _207_
*260 _208_
*261 _209_
*262 _210_
*263 _211_
*264 _212_
*265 _213_
*266 _214_
*267 _215_
*268 _216_
*269 _217_
*270 _218_
*271 _219_
*272 _220_
*273 _221_
*274 _222_
*275 _223_
*276 _224_
*277 _225_
*278 _226_
*279 _227_
*280 _228_
*281 _229_
*282 _230_
*283 _231_
*284 _232_
*285 _233_
*286 _234_
*287 _235_
*288 _236_
*289 _237_
*290 _238_
*291 _239_
*292 _240_
*293 _241_
*294 _242_
*295 _243_
*296 _244_
*297 _245_
*298 _246_
*299 _247_
*300 _248_
*301 _249_
*302 _250_
*303 _251_
*304 _252_
*305 _253_
*306 _254_
*307 _255_
*308 _256_
*309 _257_
*310 _258_
*311 _259_
*312 _260_
*313 _261_
*314 _262_
*315 _263_
*316 _264_
*317 _265_
*318 _266_
*319 _267_
*320 _268_
*321 _269_
*322 _270_
*323 _271_
*324 _272_
*325 _273_
*326 _274_
*327 _275_
*328 _276_
*329 _277_
*330 _278_
*331 _279_
*332 _280_
*333 _281_
*334 _282_
*335 _283_
*336 _284_
*337 _285_
*338 _286_
*339 _287_
*340 _288_
*341 _289_
*342 clknet_0_clk
*343 clknet_3_0__leaf_clk
*344 clknet_3_1__leaf_clk
*345 clknet_3_2__leaf_clk
*346 clknet_3_3__leaf_clk
*347 clknet_3_4__leaf_clk
*348 clknet_3_5__leaf_clk
*349 clknet_3_6__leaf_clk
*350 clknet_3_7__leaf_clk
*351 main_monitor\.SCL_pulser\.prev
*352 main_monitor\.TX
*353 main_monitor\.TX_available
*354 main_monitor\.TX_loader\.frame\[0\]
*355 main_monitor\.TX_loader\.frame\[10\]
*356 main_monitor\.TX_loader\.frame\[11\]
*357 main_monitor\.TX_loader\.frame\[12\]
*358 main_monitor\.TX_loader\.frame\[13\]
*359 main_monitor\.TX_loader\.frame\[14\]
*360 main_monitor\.TX_loader\.frame\[15\]
*361 main_monitor\.TX_loader\.frame\[16\]
*362 main_monitor\.TX_loader\.frame\[17\]
*363 main_monitor\.TX_loader\.frame\[1\]
*364 main_monitor\.TX_loader\.frame\[2\]
*365 main_monitor\.TX_loader\.frame\[3\]
*366 main_monitor\.TX_loader\.frame\[4\]
*367 main_monitor\.TX_loader\.frame\[5\]
*368 main_monitor\.TX_loader\.frame\[6\]
*369 main_monitor\.TX_loader\.frame\[7\]
*370 main_monitor\.TX_loader\.frame\[8\]
*371 main_monitor\.TX_loader\.frame\[9\]
*372 main_monitor\.TX_loader\.new_data_ready
*373 main_monitor\.TX_loader\.ps\[1\]
*374 main_monitor\.TX_loader\.ps\[2\]
*375 main_monitor\.TX_loader\.ps\[3\]
*376 main_monitor\.TX_loader\.ps\[4\]
*377 main_monitor\.TX_loader\.ps\[5\]
*378 main_monitor\.TX_loader\.ps\[6\]
*379 main_monitor\.TX_to_user\.BitTick
*380 main_monitor\.TX_to_user\.TxD_shift\[0\]
*381 main_monitor\.TX_to_user\.TxD_shift\[1\]
*382 main_monitor\.TX_to_user\.TxD_shift\[2\]
*383 main_monitor\.TX_to_user\.TxD_shift\[3\]
*384 main_monitor\.TX_to_user\.TxD_shift\[4\]
*385 main_monitor\.TX_to_user\.TxD_shift\[5\]
*386 main_monitor\.TX_to_user\.TxD_shift\[6\]
*387 main_monitor\.TX_to_user\.TxD_shift\[7\]
*388 main_monitor\.TX_to_user\.TxD_state\[0\]
*389 main_monitor\.TX_to_user\.TxD_state\[1\]
*390 main_monitor\.TX_to_user\.TxD_state\[2\]
*391 main_monitor\.TX_to_user\.TxD_state\[3\]
*392 main_monitor\.TX_to_user\.tickgen\.Acc\[10\]
*393 main_monitor\.TX_to_user\.tickgen\.Acc\[11\]
*394 main_monitor\.TX_to_user\.tickgen\.Acc\[12\]
*395 main_monitor\.TX_to_user\.tickgen\.Acc\[13\]
*396 main_monitor\.TX_to_user\.tickgen\.Acc\[14\]
*397 main_monitor\.TX_to_user\.tickgen\.Acc\[15\]
*398 main_monitor\.TX_to_user\.tickgen\.Acc\[16\]
*399 main_monitor\.TX_to_user\.tickgen\.Acc\[1\]
*400 main_monitor\.TX_to_user\.tickgen\.Acc\[2\]
*401 main_monitor\.TX_to_user\.tickgen\.Acc\[3\]
*402 main_monitor\.TX_to_user\.tickgen\.Acc\[4\]
*403 main_monitor\.TX_to_user\.tickgen\.Acc\[5\]
*404 main_monitor\.TX_to_user\.tickgen\.Acc\[6\]
*405 main_monitor\.TX_to_user\.tickgen\.Acc\[7\]
*406 main_monitor\.TX_to_user\.tickgen\.Acc\[8\]
*407 main_monitor\.TX_to_user\.tickgen\.Acc\[9\]
*408 main_monitor\.cond_detector\.SDA_Detector\.prev
*409 main_monitor\.cond_detector\.ps\[0\]
*410 main_monitor\.cond_detector\.ps\[1\]
*411 main_monitor\.cond_detector\.ps\[3\]
*412 main_monitor\.cond_detector\.ps\[4\]
*413 main_monitor\.cond_detector\.start_detected
*414 main_monitor\.current_data\[0\]
*415 main_monitor\.current_data\[10\]
*416 main_monitor\.current_data\[11\]
*417 main_monitor\.current_data\[12\]
*418 main_monitor\.current_data\[13\]
*419 main_monitor\.current_data\[14\]
*420 main_monitor\.current_data\[15\]
*421 main_monitor\.current_data\[16\]
*422 main_monitor\.current_data\[17\]
*423 main_monitor\.current_data\[1\]
*424 main_monitor\.current_data\[2\]
*425 main_monitor\.current_data\[3\]
*426 main_monitor\.current_data\[4\]
*427 main_monitor\.current_data\[5\]
*428 main_monitor\.current_data\[6\]
*429 main_monitor\.current_data\[7\]
*430 main_monitor\.current_data\[8\]
*431 main_monitor\.current_data\[9\]
*432 main_monitor\.twi_frame_buffer\.bits_received\[0\]
*433 main_monitor\.twi_frame_buffer\.bits_received\[1\]
*434 main_monitor\.twi_frame_buffer\.bits_received\[2\]
*435 main_monitor\.twi_frame_buffer\.bits_received\[3\]
*436 main_monitor\.twi_frame_buffer\.bits_received\[4\]
*437 main_monitor\.twi_frame_buffer\.bits_received\[5\]
*438 main_monitor\.twi_frame_buffer\.data_internal\[0\]
*439 main_monitor\.twi_frame_buffer\.data_internal\[10\]
*440 main_monitor\.twi_frame_buffer\.data_internal\[11\]
*441 main_monitor\.twi_frame_buffer\.data_internal\[12\]
*442 main_monitor\.twi_frame_buffer\.data_internal\[13\]
*443 main_monitor\.twi_frame_buffer\.data_internal\[14\]
*444 main_monitor\.twi_frame_buffer\.data_internal\[15\]
*445 main_monitor\.twi_frame_buffer\.data_internal\[16\]
*446 main_monitor\.twi_frame_buffer\.data_internal\[17\]
*447 main_monitor\.twi_frame_buffer\.data_internal\[1\]
*448 main_monitor\.twi_frame_buffer\.data_internal\[2\]
*449 main_monitor\.twi_frame_buffer\.data_internal\[3\]
*450 main_monitor\.twi_frame_buffer\.data_internal\[4\]
*451 main_monitor\.twi_frame_buffer\.data_internal\[5\]
*452 main_monitor\.twi_frame_buffer\.data_internal\[6\]
*453 main_monitor\.twi_frame_buffer\.data_internal\[7\]
*454 main_monitor\.twi_frame_buffer\.data_internal\[8\]
*455 main_monitor\.twi_frame_buffer\.data_internal\[9\]
*456 net1
*457 net100
*458 net101
*459 net102
*460 net103
*461 net104
*462 net105
*463 net106
*464 net107
*465 net108
*466 net109
*467 net110
*468 net111
*469 net112
*470 net113
*471 net114
*472 net115
*473 net116
*474 net117
*475 net118
*476 net119
*477 net120
*478 net121
*479 net122
*480 net123
*481 net124
*482 net125
*483 net126
*484 net127
*485 net128
*486 net129
*487 net130
*488 net131
*489 net132
*490 net133
*491 net134
*492 net135
*493 net136
*494 net137
*495 net138
*496 net139
*497 net140
*498 net141
*499 net142
*500 net143
*501 net144
*502 net145
*503 net146
*504 net147
*505 net148
*506 net149
*507 net150
*508 net151
*509 net2
*510 net3
*511 net30
*512 net31
*513 net32
*514 net33
*515 net34
*516 net35
*517 net36
*518 net37
*519 net38
*520 net39
*521 net4
*522 net40
*523 net41
*524 net42
*525 net43
*526 net44
*527 net45
*528 net46
*529 net47
*530 net48
*531 net49
*532 net5
*533 net50
*534 net51
*535 net52
*536 net53
*537 net54
*538 net55
*539 net56
*540 net57
*541 net58
*542 net59
*543 net6
*544 net60
*545 net61
*546 net62
*547 net63
*548 net64
*549 net65
*550 net66
*551 net67
*552 net68
*553 net69
*554 net70
*555 net71
*556 net72
*557 net73
*558 net74
*559 net75
*560 net76
*561 net77
*562 net78
*563 net79
*564 net80
*565 net81
*566 net82
*567 net83
*568 net84
*569 net85
*570 net86
*571 net87
*572 net88
*573 net89
*574 net90
*575 net91
*576 net92
*577 net93
*578 net94
*579 net95
*580 net96
*581 net97
*582 net98
*583 net99
*584 FILLER_0_0_109
*585 FILLER_0_0_113
*586 FILLER_0_0_125
*587 FILLER_0_0_137
*588 FILLER_0_0_141
*589 FILLER_0_0_15
*590 FILLER_0_0_153
*591 FILLER_0_0_165
*592 FILLER_0_0_169
*593 FILLER_0_0_181
*594 FILLER_0_0_193
*595 FILLER_0_0_197
*596 FILLER_0_0_209
*597 FILLER_0_0_221
*598 FILLER_0_0_225
*599 FILLER_0_0_237
*600 FILLER_0_0_249
*601 FILLER_0_0_253
*602 FILLER_0_0_265
*603 FILLER_0_0_27
*604 FILLER_0_0_277
*605 FILLER_0_0_281
*606 FILLER_0_0_29
*607 FILLER_0_0_293
*608 FILLER_0_0_3
*609 FILLER_0_0_305
*610 FILLER_0_0_309
*611 FILLER_0_0_321
*612 FILLER_0_0_333
*613 FILLER_0_0_41
*614 FILLER_0_0_53
*615 FILLER_0_0_57
*616 FILLER_0_0_69
*617 FILLER_0_0_81
*618 FILLER_0_0_85
*619 FILLER_0_0_97
*620 FILLER_0_10_109
*621 FILLER_0_10_121
*622 FILLER_0_10_133
*623 FILLER_0_10_139
*624 FILLER_0_10_141
*625 FILLER_0_10_15
*626 FILLER_0_10_153
*627 FILLER_0_10_165
*628 FILLER_0_10_177
*629 FILLER_0_10_189
*630 FILLER_0_10_195
*631 FILLER_0_10_197
*632 FILLER_0_10_209
*633 FILLER_0_10_217
*634 FILLER_0_10_244
*635 FILLER_0_10_253
*636 FILLER_0_10_257
*637 FILLER_0_10_27
*638 FILLER_0_10_29
*639 FILLER_0_10_290
*640 FILLER_0_10_3
*641 FILLER_0_10_302
*642 FILLER_0_10_309
*643 FILLER_0_10_317
*644 FILLER_0_10_329
*645 FILLER_0_10_41
*646 FILLER_0_10_53
*647 FILLER_0_10_65
*648 FILLER_0_10_77
*649 FILLER_0_10_83
*650 FILLER_0_10_85
*651 FILLER_0_10_97
*652 FILLER_0_11_105
*653 FILLER_0_11_111
*654 FILLER_0_11_113
*655 FILLER_0_11_125
*656 FILLER_0_11_137
*657 FILLER_0_11_149
*658 FILLER_0_11_15
*659 FILLER_0_11_161
*660 FILLER_0_11_167
*661 FILLER_0_11_169
*662 FILLER_0_11_181
*663 FILLER_0_11_193
*664 FILLER_0_11_205
*665 FILLER_0_11_209
*666 FILLER_0_11_253
*667 FILLER_0_11_27
*668 FILLER_0_11_297
*669 FILLER_0_11_3
*670 FILLER_0_11_309
*671 FILLER_0_11_39
*672 FILLER_0_11_51
*673 FILLER_0_11_55
*674 FILLER_0_11_57
*675 FILLER_0_11_69
*676 FILLER_0_11_81
*677 FILLER_0_11_93
*678 FILLER_0_12_109
*679 FILLER_0_12_121
*680 FILLER_0_12_133
*681 FILLER_0_12_139
*682 FILLER_0_12_141
*683 FILLER_0_12_15
*684 FILLER_0_12_153
*685 FILLER_0_12_165
*686 FILLER_0_12_177
*687 FILLER_0_12_189
*688 FILLER_0_12_195
*689 FILLER_0_12_197
*690 FILLER_0_12_209
*691 FILLER_0_12_251
*692 FILLER_0_12_253
*693 FILLER_0_12_27
*694 FILLER_0_12_29
*695 FILLER_0_12_290
*696 FILLER_0_12_296
*697 FILLER_0_12_3
*698 FILLER_0_12_307
*699 FILLER_0_12_326
*700 FILLER_0_12_334
*701 FILLER_0_12_41
*702 FILLER_0_12_53
*703 FILLER_0_12_65
*704 FILLER_0_12_77
*705 FILLER_0_12_83
*706 FILLER_0_12_85
*707 FILLER_0_12_97
*708 FILLER_0_13_105
*709 FILLER_0_13_111
*710 FILLER_0_13_113
*711 FILLER_0_13_125
*712 FILLER_0_13_137
*713 FILLER_0_13_149
*714 FILLER_0_13_15
*715 FILLER_0_13_161
*716 FILLER_0_13_167
*717 FILLER_0_13_169
*718 FILLER_0_13_181
*719 FILLER_0_13_193
*720 FILLER_0_13_205
*721 FILLER_0_13_213
*722 FILLER_0_13_240
*723 FILLER_0_13_252
*724 FILLER_0_13_258
*725 FILLER_0_13_262
*726 FILLER_0_13_27
*727 FILLER_0_13_274
*728 FILLER_0_13_285
*729 FILLER_0_13_289
*730 FILLER_0_13_3
*731 FILLER_0_13_331
*732 FILLER_0_13_39
*733 FILLER_0_13_51
*734 FILLER_0_13_55
*735 FILLER_0_13_57
*736 FILLER_0_13_69
*737 FILLER_0_13_81
*738 FILLER_0_13_93
*739 FILLER_0_14_109
*740 FILLER_0_14_121
*741 FILLER_0_14_133
*742 FILLER_0_14_139
*743 FILLER_0_14_141
*744 FILLER_0_14_15
*745 FILLER_0_14_153
*746 FILLER_0_14_165
*747 FILLER_0_14_177
*748 FILLER_0_14_189
*749 FILLER_0_14_195
*750 FILLER_0_14_197
*751 FILLER_0_14_209
*752 FILLER_0_14_221
*753 FILLER_0_14_245
*754 FILLER_0_14_249
*755 FILLER_0_14_253
*756 FILLER_0_14_27
*757 FILLER_0_14_271
*758 FILLER_0_14_283
*759 FILLER_0_14_29
*760 FILLER_0_14_3
*761 FILLER_0_14_306
*762 FILLER_0_14_332
*763 FILLER_0_14_41
*764 FILLER_0_14_53
*765 FILLER_0_14_65
*766 FILLER_0_14_77
*767 FILLER_0_14_83
*768 FILLER_0_14_85
*769 FILLER_0_14_97
*770 FILLER_0_15_105
*771 FILLER_0_15_111
*772 FILLER_0_15_113
*773 FILLER_0_15_125
*774 FILLER_0_15_137
*775 FILLER_0_15_149
*776 FILLER_0_15_15
*777 FILLER_0_15_161
*778 FILLER_0_15_167
*779 FILLER_0_15_169
*780 FILLER_0_15_181
*781 FILLER_0_15_193
*782 FILLER_0_15_205
*783 FILLER_0_15_217
*784 FILLER_0_15_27
*785 FILLER_0_15_279
*786 FILLER_0_15_281
*787 FILLER_0_15_289
*788 FILLER_0_15_3
*789 FILLER_0_15_302
*790 FILLER_0_15_308
*791 FILLER_0_15_312
*792 FILLER_0_15_320
*793 FILLER_0_15_332
*794 FILLER_0_15_39
*795 FILLER_0_15_51
*796 FILLER_0_15_55
*797 FILLER_0_15_57
*798 FILLER_0_15_69
*799 FILLER_0_15_81
*800 FILLER_0_15_93
*801 FILLER_0_16_109
*802 FILLER_0_16_121
*803 FILLER_0_16_133
*804 FILLER_0_16_139
*805 FILLER_0_16_141
*806 FILLER_0_16_15
*807 FILLER_0_16_153
*808 FILLER_0_16_165
*809 FILLER_0_16_177
*810 FILLER_0_16_189
*811 FILLER_0_16_195
*812 FILLER_0_16_197
*813 FILLER_0_16_253
*814 FILLER_0_16_27
*815 FILLER_0_16_275
*816 FILLER_0_16_287
*817 FILLER_0_16_29
*818 FILLER_0_16_299
*819 FILLER_0_16_3
*820 FILLER_0_16_307
*821 FILLER_0_16_313
*822 FILLER_0_16_331
*823 FILLER_0_16_41
*824 FILLER_0_16_53
*825 FILLER_0_16_65
*826 FILLER_0_16_77
*827 FILLER_0_16_83
*828 FILLER_0_16_85
*829 FILLER_0_16_97
*830 FILLER_0_17_105
*831 FILLER_0_17_111
*832 FILLER_0_17_113
*833 FILLER_0_17_125
*834 FILLER_0_17_137
*835 FILLER_0_17_149
*836 FILLER_0_17_15
*837 FILLER_0_17_161
*838 FILLER_0_17_167
*839 FILLER_0_17_169
*840 FILLER_0_17_181
*841 FILLER_0_17_193
*842 FILLER_0_17_205
*843 FILLER_0_17_217
*844 FILLER_0_17_241
*845 FILLER_0_17_247
*846 FILLER_0_17_27
*847 FILLER_0_17_278
*848 FILLER_0_17_281
*849 FILLER_0_17_3
*850 FILLER_0_17_39
*851 FILLER_0_17_51
*852 FILLER_0_17_55
*853 FILLER_0_17_57
*854 FILLER_0_17_69
*855 FILLER_0_17_81
*856 FILLER_0_17_93
*857 FILLER_0_18_109
*858 FILLER_0_18_121
*859 FILLER_0_18_133
*860 FILLER_0_18_139
*861 FILLER_0_18_141
*862 FILLER_0_18_15
*863 FILLER_0_18_159
*864 FILLER_0_18_171
*865 FILLER_0_18_183
*866 FILLER_0_18_195
*867 FILLER_0_18_205
*868 FILLER_0_18_217
*869 FILLER_0_18_223
*870 FILLER_0_18_242
*871 FILLER_0_18_250
*872 FILLER_0_18_253
*873 FILLER_0_18_27
*874 FILLER_0_18_289
*875 FILLER_0_18_29
*876 FILLER_0_18_297
*877 FILLER_0_18_3
*878 FILLER_0_18_317
*879 FILLER_0_18_334
*880 FILLER_0_18_41
*881 FILLER_0_18_53
*882 FILLER_0_18_65
*883 FILLER_0_18_77
*884 FILLER_0_18_83
*885 FILLER_0_18_85
*886 FILLER_0_18_97
*887 FILLER_0_19_105
*888 FILLER_0_19_111
*889 FILLER_0_19_113
*890 FILLER_0_19_125
*891 FILLER_0_19_15
*892 FILLER_0_19_169
*893 FILLER_0_19_181
*894 FILLER_0_19_207
*895 FILLER_0_19_219
*896 FILLER_0_19_223
*897 FILLER_0_19_225
*898 FILLER_0_19_237
*899 FILLER_0_19_254
*900 FILLER_0_19_262
*901 FILLER_0_19_27
*902 FILLER_0_19_279
*903 FILLER_0_19_284
*904 FILLER_0_19_290
*905 FILLER_0_19_3
*906 FILLER_0_19_306
*907 FILLER_0_19_333
*908 FILLER_0_19_39
*909 FILLER_0_19_51
*910 FILLER_0_19_55
*911 FILLER_0_19_57
*912 FILLER_0_19_69
*913 FILLER_0_19_81
*914 FILLER_0_19_93
*915 FILLER_0_1_105
*916 FILLER_0_1_111
*917 FILLER_0_1_113
*918 FILLER_0_1_125
*919 FILLER_0_1_137
*920 FILLER_0_1_149
*921 FILLER_0_1_15
*922 FILLER_0_1_161
*923 FILLER_0_1_167
*924 FILLER_0_1_169
*925 FILLER_0_1_181
*926 FILLER_0_1_193
*927 FILLER_0_1_205
*928 FILLER_0_1_217
*929 FILLER_0_1_223
*930 FILLER_0_1_225
*931 FILLER_0_1_237
*932 FILLER_0_1_249
*933 FILLER_0_1_261
*934 FILLER_0_1_27
*935 FILLER_0_1_273
*936 FILLER_0_1_279
*937 FILLER_0_1_281
*938 FILLER_0_1_293
*939 FILLER_0_1_3
*940 FILLER_0_1_305
*941 FILLER_0_1_317
*942 FILLER_0_1_329
*943 FILLER_0_1_39
*944 FILLER_0_1_51
*945 FILLER_0_1_55
*946 FILLER_0_1_57
*947 FILLER_0_1_69
*948 FILLER_0_1_81
*949 FILLER_0_1_93
*950 FILLER_0_20_109
*951 FILLER_0_20_113
*952 FILLER_0_20_130
*953 FILLER_0_20_141
*954 FILLER_0_20_145
*955 FILLER_0_20_15
*956 FILLER_0_20_170
*957 FILLER_0_20_178
*958 FILLER_0_20_218
*959 FILLER_0_20_250
*960 FILLER_0_20_253
*961 FILLER_0_20_27
*962 FILLER_0_20_276
*963 FILLER_0_20_286
*964 FILLER_0_20_29
*965 FILLER_0_20_298
*966 FILLER_0_20_3
*967 FILLER_0_20_307
*968 FILLER_0_20_309
*969 FILLER_0_20_325
*970 FILLER_0_20_333
*971 FILLER_0_20_41
*972 FILLER_0_20_53
*973 FILLER_0_20_65
*974 FILLER_0_20_77
*975 FILLER_0_20_83
*976 FILLER_0_20_85
*977 FILLER_0_20_97
*978 FILLER_0_21_104
*979 FILLER_0_21_113
*980 FILLER_0_21_132
*981 FILLER_0_21_142
*982 FILLER_0_21_15
*983 FILLER_0_21_167
*984 FILLER_0_21_176
*985 FILLER_0_21_213
*986 FILLER_0_21_244
*987 FILLER_0_21_27
*988 FILLER_0_21_274
*989 FILLER_0_21_281
*990 FILLER_0_21_293
*991 FILLER_0_21_3
*992 FILLER_0_21_306
*993 FILLER_0_21_331
*994 FILLER_0_21_39
*995 FILLER_0_21_51
*996 FILLER_0_21_55
*997 FILLER_0_21_57
*998 FILLER_0_21_69
*999 FILLER_0_21_81
*1000 FILLER_0_21_87
*1001 FILLER_0_22_106
*1002 FILLER_0_22_124
*1003 FILLER_0_22_129
*1004 FILLER_0_22_133
*1005 FILLER_0_22_139
*1006 FILLER_0_22_144
*1007 FILLER_0_22_15
*1008 FILLER_0_22_152
*1009 FILLER_0_22_193
*1010 FILLER_0_22_234
*1011 FILLER_0_22_244
*1012 FILLER_0_22_253
*1013 FILLER_0_22_27
*1014 FILLER_0_22_274
*1015 FILLER_0_22_283
*1016 FILLER_0_22_29
*1017 FILLER_0_22_295
*1018 FILLER_0_22_3
*1019 FILLER_0_22_333
*1020 FILLER_0_22_41
*1021 FILLER_0_22_53
*1022 FILLER_0_22_65
*1023 FILLER_0_22_73
*1024 FILLER_0_23_113
*1025 FILLER_0_23_122
*1026 FILLER_0_23_135
*1027 FILLER_0_23_143
*1028 FILLER_0_23_15
*1029 FILLER_0_23_151
*1030 FILLER_0_23_221
*1031 FILLER_0_23_240
*1032 FILLER_0_23_244
*1033 FILLER_0_23_253
*1034 FILLER_0_23_261
*1035 FILLER_0_23_27
*1036 FILLER_0_23_273
*1037 FILLER_0_23_279
*1038 FILLER_0_23_297
*1039 FILLER_0_23_3
*1040 FILLER_0_23_328
*1041 FILLER_0_23_334
*1042 FILLER_0_23_39
*1043 FILLER_0_23_51
*1044 FILLER_0_23_55
*1045 FILLER_0_23_57
*1046 FILLER_0_23_69
*1047 FILLER_0_23_81
*1048 FILLER_0_23_89
*1049 FILLER_0_23_99
*1050 FILLER_0_24_141
*1051 FILLER_0_24_145
*1052 FILLER_0_24_15
*1053 FILLER_0_24_178
*1054 FILLER_0_24_249
*1055 FILLER_0_24_253
*1056 FILLER_0_24_27
*1057 FILLER_0_24_29
*1058 FILLER_0_24_297
*1059 FILLER_0_24_3
*1060 FILLER_0_24_301
*1061 FILLER_0_24_333
*1062 FILLER_0_24_41
*1063 FILLER_0_24_53
*1064 FILLER_0_24_65
*1065 FILLER_0_24_77
*1066 FILLER_0_24_83
*1067 FILLER_0_24_98
*1068 FILLER_0_25_102
*1069 FILLER_0_25_113
*1070 FILLER_0_25_138
*1071 FILLER_0_25_15
*1072 FILLER_0_25_165
*1073 FILLER_0_25_230
*1074 FILLER_0_25_256
*1075 FILLER_0_25_267
*1076 FILLER_0_25_27
*1077 FILLER_0_25_279
*1078 FILLER_0_25_3
*1079 FILLER_0_25_306
*1080 FILLER_0_25_314
*1081 FILLER_0_25_331
*1082 FILLER_0_25_39
*1083 FILLER_0_25_51
*1084 FILLER_0_25_55
*1085 FILLER_0_25_57
*1086 FILLER_0_25_69
*1087 FILLER_0_25_77
*1088 FILLER_0_26_101
*1089 FILLER_0_26_131
*1090 FILLER_0_26_141
*1091 FILLER_0_26_15
*1092 FILLER_0_26_168
*1093 FILLER_0_26_176
*1094 FILLER_0_26_194
*1095 FILLER_0_26_226
*1096 FILLER_0_26_243
*1097 FILLER_0_26_251
*1098 FILLER_0_26_253
*1099 FILLER_0_26_27
*1100 FILLER_0_26_29
*1101 FILLER_0_26_3
*1102 FILLER_0_26_303
*1103 FILLER_0_26_307
*1104 FILLER_0_26_309
*1105 FILLER_0_26_41
*1106 FILLER_0_26_53
*1107 FILLER_0_26_65
*1108 FILLER_0_26_77
*1109 FILLER_0_26_83
*1110 FILLER_0_27_101
*1111 FILLER_0_27_129
*1112 FILLER_0_27_139
*1113 FILLER_0_27_15
*1114 FILLER_0_27_169
*1115 FILLER_0_27_181
*1116 FILLER_0_27_208
*1117 FILLER_0_27_225
*1118 FILLER_0_27_238
*1119 FILLER_0_27_250
*1120 FILLER_0_27_267
*1121 FILLER_0_27_27
*1122 FILLER_0_27_279
*1123 FILLER_0_27_281
*1124 FILLER_0_27_292
*1125 FILLER_0_27_3
*1126 FILLER_0_27_314
*1127 FILLER_0_27_331
*1128 FILLER_0_27_39
*1129 FILLER_0_27_51
*1130 FILLER_0_27_55
*1131 FILLER_0_27_57
*1132 FILLER_0_27_69
*1133 FILLER_0_27_81
*1134 FILLER_0_27_87
*1135 FILLER_0_27_93
*1136 FILLER_0_28_104
*1137 FILLER_0_28_116
*1138 FILLER_0_28_130
*1139 FILLER_0_28_15
*1140 FILLER_0_28_157
*1141 FILLER_0_28_174
*1142 FILLER_0_28_192
*1143 FILLER_0_28_197
*1144 FILLER_0_28_235
*1145 FILLER_0_28_241
*1146 FILLER_0_28_246
*1147 FILLER_0_28_253
*1148 FILLER_0_28_27
*1149 FILLER_0_28_270
*1150 FILLER_0_28_274
*1151 FILLER_0_28_279
*1152 FILLER_0_28_29
*1153 FILLER_0_28_3
*1154 FILLER_0_28_304
*1155 FILLER_0_28_334
*1156 FILLER_0_28_41
*1157 FILLER_0_28_53
*1158 FILLER_0_28_65
*1159 FILLER_0_28_77
*1160 FILLER_0_28_83
*1161 FILLER_0_28_85
*1162 FILLER_0_28_92
*1163 FILLER_0_29_111
*1164 FILLER_0_29_130
*1165 FILLER_0_29_145
*1166 FILLER_0_29_15
*1167 FILLER_0_29_169
*1168 FILLER_0_29_195
*1169 FILLER_0_29_203
*1170 FILLER_0_29_212
*1171 FILLER_0_29_222
*1172 FILLER_0_29_249
*1173 FILLER_0_29_27
*1174 FILLER_0_29_279
*1175 FILLER_0_29_281
*1176 FILLER_0_29_287
*1177 FILLER_0_29_3
*1178 FILLER_0_29_331
*1179 FILLER_0_29_39
*1180 FILLER_0_29_51
*1181 FILLER_0_29_55
*1182 FILLER_0_29_57
*1183 FILLER_0_29_69
*1184 FILLER_0_29_81
*1185 FILLER_0_2_109
*1186 FILLER_0_2_121
*1187 FILLER_0_2_133
*1188 FILLER_0_2_139
*1189 FILLER_0_2_141
*1190 FILLER_0_2_15
*1191 FILLER_0_2_153
*1192 FILLER_0_2_165
*1193 FILLER_0_2_177
*1194 FILLER_0_2_189
*1195 FILLER_0_2_195
*1196 FILLER_0_2_197
*1197 FILLER_0_2_209
*1198 FILLER_0_2_221
*1199 FILLER_0_2_233
*1200 FILLER_0_2_245
*1201 FILLER_0_2_251
*1202 FILLER_0_2_253
*1203 FILLER_0_2_265
*1204 FILLER_0_2_27
*1205 FILLER_0_2_277
*1206 FILLER_0_2_289
*1207 FILLER_0_2_29
*1208 FILLER_0_2_3
*1209 FILLER_0_2_301
*1210 FILLER_0_2_307
*1211 FILLER_0_2_309
*1212 FILLER_0_2_321
*1213 FILLER_0_2_333
*1214 FILLER_0_2_41
*1215 FILLER_0_2_53
*1216 FILLER_0_2_65
*1217 FILLER_0_2_77
*1218 FILLER_0_2_83
*1219 FILLER_0_2_85
*1220 FILLER_0_2_97
*1221 FILLER_0_30_130
*1222 FILLER_0_30_15
*1223 FILLER_0_30_157
*1224 FILLER_0_30_193
*1225 FILLER_0_30_245
*1226 FILLER_0_30_27
*1227 FILLER_0_30_287
*1228 FILLER_0_30_29
*1229 FILLER_0_30_3
*1230 FILLER_0_30_334
*1231 FILLER_0_30_41
*1232 FILLER_0_30_53
*1233 FILLER_0_30_65
*1234 FILLER_0_30_73
*1235 FILLER_0_31_103
*1236 FILLER_0_31_113
*1237 FILLER_0_31_120
*1238 FILLER_0_31_124
*1239 FILLER_0_31_15
*1240 FILLER_0_31_156
*1241 FILLER_0_31_160
*1242 FILLER_0_31_206
*1243 FILLER_0_31_220
*1244 FILLER_0_31_233
*1245 FILLER_0_31_27
*1246 FILLER_0_31_277
*1247 FILLER_0_31_298
*1248 FILLER_0_31_3
*1249 FILLER_0_31_331
*1250 FILLER_0_31_39
*1251 FILLER_0_31_51
*1252 FILLER_0_31_55
*1253 FILLER_0_31_57
*1254 FILLER_0_31_69
*1255 FILLER_0_31_77
*1256 FILLER_0_32_107
*1257 FILLER_0_32_15
*1258 FILLER_0_32_204
*1259 FILLER_0_32_249
*1260 FILLER_0_32_27
*1261 FILLER_0_32_285
*1262 FILLER_0_32_29
*1263 FILLER_0_32_296
*1264 FILLER_0_32_3
*1265 FILLER_0_32_305
*1266 FILLER_0_32_325
*1267 FILLER_0_32_333
*1268 FILLER_0_32_41
*1269 FILLER_0_32_53
*1270 FILLER_0_32_65
*1271 FILLER_0_32_77
*1272 FILLER_0_32_83
*1273 FILLER_0_32_85
*1274 FILLER_0_32_93
*1275 FILLER_0_33_113
*1276 FILLER_0_33_126
*1277 FILLER_0_33_138
*1278 FILLER_0_33_15
*1279 FILLER_0_33_165
*1280 FILLER_0_33_204
*1281 FILLER_0_33_249
*1282 FILLER_0_33_261
*1283 FILLER_0_33_27
*1284 FILLER_0_33_281
*1285 FILLER_0_33_289
*1286 FILLER_0_33_293
*1287 FILLER_0_33_3
*1288 FILLER_0_33_307
*1289 FILLER_0_33_334
*1290 FILLER_0_33_39
*1291 FILLER_0_33_51
*1292 FILLER_0_33_55
*1293 FILLER_0_33_57
*1294 FILLER_0_33_69
*1295 FILLER_0_33_77
*1296 FILLER_0_33_96
*1297 FILLER_0_34_113
*1298 FILLER_0_34_122
*1299 FILLER_0_34_128
*1300 FILLER_0_34_138
*1301 FILLER_0_34_15
*1302 FILLER_0_34_205
*1303 FILLER_0_34_218
*1304 FILLER_0_34_246
*1305 FILLER_0_34_253
*1306 FILLER_0_34_259
*1307 FILLER_0_34_27
*1308 FILLER_0_34_285
*1309 FILLER_0_34_29
*1310 FILLER_0_34_293
*1311 FILLER_0_34_3
*1312 FILLER_0_34_302
*1313 FILLER_0_34_315
*1314 FILLER_0_34_333
*1315 FILLER_0_34_41
*1316 FILLER_0_34_53
*1317 FILLER_0_34_65
*1318 FILLER_0_34_77
*1319 FILLER_0_34_83
*1320 FILLER_0_34_85
*1321 FILLER_0_35_111
*1322 FILLER_0_35_126
*1323 FILLER_0_35_142
*1324 FILLER_0_35_146
*1325 FILLER_0_35_15
*1326 FILLER_0_35_169
*1327 FILLER_0_35_213
*1328 FILLER_0_35_221
*1329 FILLER_0_35_225
*1330 FILLER_0_35_249
*1331 FILLER_0_35_27
*1332 FILLER_0_35_279
*1333 FILLER_0_35_3
*1334 FILLER_0_35_39
*1335 FILLER_0_35_51
*1336 FILLER_0_35_55
*1337 FILLER_0_35_57
*1338 FILLER_0_35_69
*1339 FILLER_0_35_81
*1340 FILLER_0_35_89
*1341 FILLER_0_36_104
*1342 FILLER_0_36_119
*1343 FILLER_0_36_123
*1344 FILLER_0_36_145
*1345 FILLER_0_36_15
*1346 FILLER_0_36_153
*1347 FILLER_0_36_179
*1348 FILLER_0_36_203
*1349 FILLER_0_36_210
*1350 FILLER_0_36_251
*1351 FILLER_0_36_27
*1352 FILLER_0_36_280
*1353 FILLER_0_36_29
*1354 FILLER_0_36_3
*1355 FILLER_0_36_307
*1356 FILLER_0_36_314
*1357 FILLER_0_36_334
*1358 FILLER_0_36_41
*1359 FILLER_0_36_53
*1360 FILLER_0_36_65
*1361 FILLER_0_36_77
*1362 FILLER_0_36_83
*1363 FILLER_0_36_85
*1364 FILLER_0_37_110
*1365 FILLER_0_37_113
*1366 FILLER_0_37_124
*1367 FILLER_0_37_128
*1368 FILLER_0_37_15
*1369 FILLER_0_37_153
*1370 FILLER_0_37_165
*1371 FILLER_0_37_185
*1372 FILLER_0_37_216
*1373 FILLER_0_37_225
*1374 FILLER_0_37_235
*1375 FILLER_0_37_253
*1376 FILLER_0_37_257
*1377 FILLER_0_37_27
*1378 FILLER_0_37_274
*1379 FILLER_0_37_281
*1380 FILLER_0_37_3
*1381 FILLER_0_37_304
*1382 FILLER_0_37_333
*1383 FILLER_0_37_39
*1384 FILLER_0_37_51
*1385 FILLER_0_37_55
*1386 FILLER_0_37_57
*1387 FILLER_0_37_69
*1388 FILLER_0_37_77
*1389 FILLER_0_38_10
*1390 FILLER_0_38_104
*1391 FILLER_0_38_110
*1392 FILLER_0_38_113
*1393 FILLER_0_38_118
*1394 FILLER_0_38_122
*1395 FILLER_0_38_126
*1396 FILLER_0_38_130
*1397 FILLER_0_38_134
*1398 FILLER_0_38_14
*1399 FILLER_0_38_144
*1400 FILLER_0_38_150
*1401 FILLER_0_38_154
*1402 FILLER_0_38_158
*1403 FILLER_0_38_162
*1404 FILLER_0_38_166
*1405 FILLER_0_38_169
*1406 FILLER_0_38_174
*1407 FILLER_0_38_178
*1408 FILLER_0_38_18
*1409 FILLER_0_38_182
*1410 FILLER_0_38_194
*1411 FILLER_0_38_197
*1412 FILLER_0_38_203
*1413 FILLER_0_38_215
*1414 FILLER_0_38_22
*1415 FILLER_0_38_223
*1416 FILLER_0_38_225
*1417 FILLER_0_38_237
*1418 FILLER_0_38_241
*1419 FILLER_0_38_249
*1420 FILLER_0_38_261
*1421 FILLER_0_38_267
*1422 FILLER_0_38_276
*1423 FILLER_0_38_281
*1424 FILLER_0_38_293
*1425 FILLER_0_38_301
*1426 FILLER_0_38_32
*1427 FILLER_0_38_38
*1428 FILLER_0_38_42
*1429 FILLER_0_38_46
*1430 FILLER_0_38_50
*1431 FILLER_0_38_54
*1432 FILLER_0_38_57
*1433 FILLER_0_38_6
*1434 FILLER_0_38_62
*1435 FILLER_0_38_66
*1436 FILLER_0_38_70
*1437 FILLER_0_38_74
*1438 FILLER_0_38_78
*1439 FILLER_0_38_88
*1440 FILLER_0_38_94
*1441 FILLER_0_3_105
*1442 FILLER_0_3_111
*1443 FILLER_0_3_113
*1444 FILLER_0_3_125
*1445 FILLER_0_3_137
*1446 FILLER_0_3_149
*1447 FILLER_0_3_15
*1448 FILLER_0_3_161
*1449 FILLER_0_3_167
*1450 FILLER_0_3_169
*1451 FILLER_0_3_181
*1452 FILLER_0_3_193
*1453 FILLER_0_3_205
*1454 FILLER_0_3_217
*1455 FILLER_0_3_223
*1456 FILLER_0_3_225
*1457 FILLER_0_3_237
*1458 FILLER_0_3_249
*1459 FILLER_0_3_261
*1460 FILLER_0_3_27
*1461 FILLER_0_3_273
*1462 FILLER_0_3_279
*1463 FILLER_0_3_281
*1464 FILLER_0_3_293
*1465 FILLER_0_3_3
*1466 FILLER_0_3_305
*1467 FILLER_0_3_317
*1468 FILLER_0_3_329
*1469 FILLER_0_3_39
*1470 FILLER_0_3_51
*1471 FILLER_0_3_55
*1472 FILLER_0_3_57
*1473 FILLER_0_3_69
*1474 FILLER_0_3_81
*1475 FILLER_0_3_93
*1476 FILLER_0_4_109
*1477 FILLER_0_4_121
*1478 FILLER_0_4_133
*1479 FILLER_0_4_139
*1480 FILLER_0_4_141
*1481 FILLER_0_4_15
*1482 FILLER_0_4_153
*1483 FILLER_0_4_165
*1484 FILLER_0_4_177
*1485 FILLER_0_4_189
*1486 FILLER_0_4_195
*1487 FILLER_0_4_197
*1488 FILLER_0_4_209
*1489 FILLER_0_4_221
*1490 FILLER_0_4_233
*1491 FILLER_0_4_245
*1492 FILLER_0_4_251
*1493 FILLER_0_4_253
*1494 FILLER_0_4_265
*1495 FILLER_0_4_27
*1496 FILLER_0_4_277
*1497 FILLER_0_4_289
*1498 FILLER_0_4_29
*1499 FILLER_0_4_3
*1500 FILLER_0_4_301
*1501 FILLER_0_4_307
*1502 FILLER_0_4_309
*1503 FILLER_0_4_321
*1504 FILLER_0_4_333
*1505 FILLER_0_4_41
*1506 FILLER_0_4_53
*1507 FILLER_0_4_65
*1508 FILLER_0_4_77
*1509 FILLER_0_4_83