*SPEF "ieee 1481-1999"
*DESIGN "tt_um_frq_divider"
*DATE "14:35:59 Tuesday April 16, 2024"
*VENDOR "The OpenROAD Project"
*PROGRAM "OpenROAD"
*VERSION "0889970d1790a2617e69f253221b8bd7626e51dc"
*DESIGN_FLOW "NAME_SCOPE LOCAL" "PIN_CAP NONE"
*DIVIDER /
*DELIMITER :
*BUS_DELIMITER []
*T_UNIT 1 NS
*C_UNIT 1 PF
*R_UNIT 1 OHM
*L_UNIT 1 HENRY

*NAME_MAP
*3 clk
*4 ena
*5 rst_n
*6 ui_in[0]
*7 ui_in[1]
*8 ui_in[2]
*9 ui_in[3]
*10 ui_in[4]
*11 ui_in[5]
*12 ui_in[6]
*13 ui_in[7]
*14 uio_in[0]
*15 uio_in[1]
*16 uio_in[2]
*17 uio_in[3]
*18 uio_in[4]
*19 uio_in[5]
*20 uio_in[6]
*21 uio_in[7]
*22 net22
*23 net44
*24 net23
*25 net24
*26 net25
*27 net26
*28 net27
*29 net28
*30 net29
*31 uio_out[1]
*32 net30
*33 net31
*34 net32
*35 net33
*36 net34
*37 net35
*38 net36
*39 net37
*40 net38
*41 net39
*42 net40
*43 net41
*44 net42
*45 net43
*46 _0000_
*47 _0001_
*48 _0002_
*49 _0003_
*50 _0004_
*51 _0005_
*52 _0006_
*53 _0007_
*54 _0008_
*55 _0009_
*56 _0010_
*57 _0011_
*58 _0012_
*59 _0013_
*60 _0014_
*61 _0015_
*62 _0016_
*63 _0017_
*64 _0018_
*65 _0019_
*66 _0020_
*67 _0021_
*68 _0022_
*69 _0023_
*70 _0024_
*71 _0025_
*72 _0026_
*73 _0027_
*74 _0028_
*75 _0029_
*76 _0030_
*77 _0031_
*78 _0032_
*79 _0033_
*80 _0034_
*81 _0035_
*82 _0036_
*83 _0037_
*84 _0038_
*85 _0039_
*86 _0040_
*87 _0041_
*88 _0042_
*89 _0043_
*90 _0044_
*91 _0045_
*92 _0046_
*93 _0047_
*94 _0048_
*95 _0049_
*96 _0050_
*97 _0051_
*98 _0052_
*99 _0053_
*100 _0054_
*101 _0055_
*102 _0056_
*103 _0057_
*104 _0058_
*105 _0059_
*106 _0060_
*107 _0061_
*108 _0062_
*109 _0063_
*110 _0064_
*111 _0065_
*112 _0066_
*113 _0067_
*114 _0068_
*115 _0069_
*116 _0070_
*117 _0071_
*118 _0072_
*119 _0073_
*120 _0074_
*121 _0075_
*122 _0076_
*123 _0077_
*124 _0078_
*125 _0079_
*126 _0080_
*127 _0081_
*128 _0082_
*129 _0083_
*130 _0084_
*131 _0085_
*132 _0086_
*133 _0087_
*134 _0088_
*135 _0089_
*136 _0090_
*137 _0091_
*138 _0092_
*139 _0093_
*140 _0094_
*141 _0095_
*142 _0096_
*143 _0097_
*144 _0098_
*145 _0099_
*146 _0100_
*147 _0101_
*148 _0102_
*149 _0103_
*150 _0104_
*151 _0105_
*152 _0106_
*153 _0107_
*154 _0108_
*155 _0109_
*156 _0110_
*157 _0111_
*158 _0112_
*159 _0113_
*160 _0114_
*161 _0115_
*162 _0116_
*163 _0117_
*164 _0118_
*165 _0119_
*166 _0120_
*167 _0121_
*168 _0122_
*169 _0123_
*170 _0124_
*171 _0125_
*172 _0126_
*173 _0127_
*174 _0128_
*175 _0129_
*176 _0130_
*177 _0131_
*178 _0132_
*179 _0133_
*180 _0134_
*181 _0135_
*182 _0136_
*183 _0137_
*184 _0138_
*185 _0139_
*186 _0140_
*187 _0141_
*188 _0142_
*189 _0143_
*190 _0144_
*191 _0145_
*192 _0146_
*193 _0147_
*194 _0148_
*195 _0149_
*196 _0150_
*197 _0151_
*198 _0152_
*199 _0153_
*200 _0154_
*201 _0155_
*202 _0156_
*203 _0157_
*204 _0158_
*205 _0159_
*206 _0160_
*207 _0161_
*208 _0162_
*209 _0163_
*210 _0164_
*211 _0165_
*212 _0166_
*213 _0167_
*214 _0168_
*215 _0169_
*216 _0170_
*217 _0171_
*218 _0172_
*219 _0173_
*220 _0174_
*221 _0175_
*222 _0176_
*223 _0177_
*224 _0178_
*225 _0179_
*226 _0180_
*227 _0181_
*228 _0182_
*229 _0183_
*230 _0184_
*231 _0185_
*232 _0186_
*233 _0187_
*234 _0188_
*235 _0189_
*236 _0190_
*237 _0191_
*238 _0192_
*239 _0193_
*240 _0194_
*241 _0195_
*242 _0196_
*243 _0197_
*244 _0198_
*245 _0199_
*246 _0200_
*247 _0201_
*248 _0202_
*249 _0203_
*250 _0204_
*251 _0205_
*252 _0206_
*253 _0207_
*254 _0208_
*255 _0209_
*256 _0210_
*257 _0211_
*258 _0212_
*259 _0213_
*260 _0214_
*261 _0215_
*262 _0216_
*263 _0217_
*264 _0218_
*265 _0219_
*266 _0220_
*267 _0221_
*268 _0222_
*269 _0223_
*270 _0224_
*271 _0225_
*272 _0226_
*273 _0227_
*274 _0228_
*275 _0229_
*276 _0230_
*277 _0231_
*278 _0232_
*279 _0233_
*280 _0234_
*281 _0235_
*282 _0236_
*283 _0237_
*284 _0238_
*285 _0239_
*286 _0240_
*287 _0241_
*288 _0242_
*289 _0243_
*290 _0244_
*291 _0245_
*292 _0246_
*293 _0247_
*294 _0248_
*295 _0249_
*296 _0250_
*297 _0251_
*298 _0252_
*299 _0253_
*300 _0254_
*301 _0255_
*302 _0256_
*303 _0257_
*304 _0258_
*305 _0259_
*306 _0260_
*307 _0261_
*308 _0262_
*309 _0263_
*310 _0264_
*311 _0265_
*312 _0266_
*313 _0267_
*314 _0268_
*315 _0269_
*316 _0270_
*317 _0271_
*318 _0272_
*319 _0273_
*320 _0274_
*321 _0275_
*322 _0276_
*323 _0277_
*324 _0278_
*325 _0279_
*326 _0280_
*327 _0281_
*328 _0282_
*329 _0283_
*330 _0284_
*331 _0285_
*332 _0286_
*333 _0287_
*334 _0288_
*335 _0289_
*336 _0290_
*337 _0291_
*338 _0292_
*339 _0293_
*340 _0294_
*341 _0295_
*342 _0296_
*343 _0297_
*344 _0298_
*345 _0299_
*346 _0300_
*347 _0301_
*348 _0302_
*349 _0303_
*350 _0304_
*351 _0305_
*352 _0306_
*353 _0307_
*354 _0308_
*355 _0309_
*356 _0310_
*357 _0311_
*358 _0312_
*359 _0313_
*360 _0314_
*361 _0315_
*362 _0316_
*363 _0317_
*364 _0318_
*365 _0319_
*366 _0320_
*367 _0321_
*368 _0322_
*369 _0323_
*370 _0324_
*371 _0325_
*372 _0326_
*373 _0327_
*374 _0328_
*375 _0329_
*376 _0330_
*377 _0331_
*378 _0332_
*379 _0333_
*380 _0334_
*381 _0335_
*382 _0336_
*383 _0337_
*384 _0338_
*385 _0339_
*386 _0340_
*387 _0341_
*388 _0342_
*389 _0343_
*390 _0344_
*391 _0345_
*392 _0346_
*393 _0347_
*394 _0348_
*395 _0349_
*396 _0350_
*397 _0351_
*398 _0352_
*399 _0353_
*400 _0354_
*401 _0355_
*402 _0356_
*403 _0357_
*404 _0358_
*405 _0359_
*406 _0360_
*407 _0361_
*408 _0362_
*409 _0363_
*410 _0364_
*411 _0365_
*412 _0366_
*413 _0367_
*414 _0368_
*415 _0369_
*416 _0370_
*417 _0371_
*418 _0372_
*419 _0373_
*420 _0374_
*421 _0375_
*422 _0376_
*423 _0377_
*424 _0378_
*425 _0379_
*426 _0380_
*427 _0381_
*428 _0382_
*429 _0383_
*430 _0384_
*431 _0385_
*432 _0386_
*433 _0387_
*434 _0388_
*435 _0389_
*436 _0390_
*437 _0391_
*438 _0392_
*439 _0393_
*440 _0394_
*441 _0395_
*442 _0396_
*443 _0397_
*444 _0398_
*445 _0399_
*446 _0400_
*447 _0401_
*448 _0402_
*449 _0403_
*450 _0404_
*451 _0405_
*452 _0406_
*453 _0407_
*454 _0408_
*455 _0409_
*456 _0410_
*457 _0411_
*458 _0412_
*459 _0413_
*460 _0414_
*461 _0415_
*462 _0416_
*463 _0417_
*464 _0418_
*465 _0419_
*466 _0420_
*467 _0421_
*468 _0422_
*469 _0423_
*470 _0424_
*471 _0425_
*472 _0426_
*473 _0427_
*474 _0428_
*475 _0429_
*476 _0430_
*477 _0431_
*478 _0432_
*479 _0433_
*480 _0434_
*481 _0435_
*482 _0436_
*483 _0437_
*484 _0438_
*485 _0439_
*486 _0440_
*487 _0441_
*488 _0442_
*489 _0443_
*490 _0444_
*491 _0445_
*492 _0446_
*493 _0447_
*494 _0448_
*495 _0449_
*496 _0450_
*497 _0451_
*498 _0452_
*499 _0453_
*500 _0454_
*501 _0455_
*502 _0456_
*503 _0457_
*504 _0458_
*505 _0459_
*506 _0460_
*507 _0461_
*508 _0462_
*509 _0463_
*510 _0464_
*511 _0465_
*512 _0466_
*513 _0467_
*514 _0468_
*515 _0469_
*516 _0470_
*517 _0471_
*518 _0472_
*519 _0473_
*520 _0474_
*521 _0475_
*522 _0476_
*523 _0477_
*524 _0478_
*525 _0479_
*526 _0480_
*527 _0481_
*528 _0482_
*529 _0483_
*530 _0484_
*531 _0485_
*532 _0486_
*533 _0487_
*534 _0488_
*535 _0489_
*536 _0490_
*537 _0491_
*538 _0492_
*539 _0493_
*540 _0494_
*541 _0495_
*542 _0496_
*543 _0497_
*544 _0498_
*545 _0499_
*546 _0500_
*547 _0501_
*548 _0502_
*549 _0503_
*550 _0504_
*551 _0505_
*552 _0506_
*553 _0507_
*554 _0508_
*555 _0509_
*556 _0510_
*557 _0511_
*558 _0512_
*559 _0513_
*560 _0514_
*561 _0515_
*562 _0516_
*563 _0517_
*564 _0518_
*565 _0519_
*566 _0520_
*567 _0521_
*568 _0522_
*569 _0523_
*570 _0524_
*571 _0525_
*572 _0526_
*573 _0527_
*574 _0528_
*575 _0529_
*576 _0530_
*577 _0531_
*578 _0532_
*579 _0533_
*580 _0534_
*581 _0535_
*582 _0536_
*583 _0537_
*584 _0538_
*585 _0539_
*586 _0540_
*587 _0541_
*588 _0542_
*589 _0543_
*590 _0544_
*591 _0545_
*592 _0546_
*593 _0547_
*594 _0548_
*595 _0549_
*596 _0550_
*597 _0551_
*598 _0552_
*599 _0553_
*600 _0554_
*601 _0555_
*602 _0556_
*603 _0557_
*604 _0558_
*605 _0559_
*606 _0560_
*607 _0561_
*608 _0562_
*609 _0563_
*610 _0564_
*611 _0565_
*612 _0566_
*613 _0567_
*614 _0568_
*615 _0569_
*616 _0570_
*617 _0571_
*618 _0572_
*619 _0573_
*620 frq_divider\.ROM_inst\.data\[0\]
*621 frq_divider\.ROM_inst\.data\[10\]
*622 frq_divider\.ROM_inst\.data\[11\]
*623 frq_divider\.ROM_inst\.data\[12\]
*624 frq_divider\.ROM_inst\.data\[13\]
*625 frq_divider\.ROM_inst\.data\[14\]
*626 frq_divider\.ROM_inst\.data\[15\]
*627 frq_divider\.ROM_inst\.data\[16\]
*628 frq_divider\.ROM_inst\.data\[17\]
*629 frq_divider\.ROM_inst\.data\[18\]
*630 frq_divider\.ROM_inst\.data\[19\]
*631 frq_divider\.ROM_inst\.data\[1\]
*632 frq_divider\.ROM_inst\.data\[20\]
*633 frq_divider\.ROM_inst\.data\[21\]
*634 frq_divider\.ROM_inst\.data\[22\]
*635 frq_divider\.ROM_inst\.data\[2\]
*636 frq_divider\.ROM_inst\.data\[3\]
*637 frq_divider\.ROM_inst\.data\[4\]
*638 frq_divider\.ROM_inst\.data\[5\]
*639 frq_divider\.ROM_inst\.data\[6\]
*640 frq_divider\.ROM_inst\.data\[7\]
*641 frq_divider\.ROM_inst\.data\[8\]
*642 frq_divider\.ROM_inst\.data\[9\]
*643 frq_divider\.clk_divider_inst\.clock_out
*644 frq_divider\.clk_divider_inst\.counter\[0\]
*645 frq_divider\.clk_divider_inst\.counter\[10\]
*646 frq_divider\.clk_divider_inst\.counter\[11\]
*647 frq_divider\.clk_divider_inst\.counter\[12\]
*648 frq_divider\.clk_divider_inst\.counter\[13\]
*649 frq_divider\.clk_divider_inst\.counter\[14\]
*650 frq_divider\.clk_divider_inst\.counter\[15\]
*651 frq_divider\.clk_divider_inst\.counter\[16\]
*652 frq_divider\.clk_divider_inst\.counter\[17\]
*653 frq_divider\.clk_divider_inst\.counter\[18\]
*654 frq_divider\.clk_divider_inst\.counter\[19\]
*655 frq_divider\.clk_divider_inst\.counter\[1\]
*656 frq_divider\.clk_divider_inst\.counter\[20\]
*657 frq_divider\.clk_divider_inst\.counter\[21\]
*658 frq_divider\.clk_divider_inst\.counter\[22\]
*659 frq_divider\.clk_divider_inst\.counter\[23\]
*660 frq_divider\.clk_divider_inst\.counter\[24\]
*661 frq_divider\.clk_divider_inst\.counter\[25\]
*662 frq_divider\.clk_divider_inst\.counter\[26\]
*663 frq_divider\.clk_divider_inst\.counter\[27\]
*664 frq_divider\.clk_divider_inst\.counter\[2\]
*665 frq_divider\.clk_divider_inst\.counter\[3\]
*666 frq_divider\.clk_divider_inst\.counter\[4\]
*667 frq_divider\.clk_divider_inst\.counter\[5\]
*668 frq_divider\.clk_divider_inst\.counter\[6\]
*669 frq_divider\.clk_divider_inst\.counter\[7\]
*670 frq_divider\.clk_divider_inst\.counter\[8\]
*671 frq_divider\.clk_divider_inst\.counter\[9\]
*672 frq_divider\.clk_divider_inst\.divisor\[0\]
*673 frq_divider\.clk_divider_inst\.divisor\[10\]
*674 frq_divider\.clk_divider_inst\.divisor\[11\]
*675 frq_divider\.clk_divider_inst\.divisor\[12\]
*676 frq_divider\.clk_divider_inst\.divisor\[13\]
*677 frq_divider\.clk_divider_inst\.divisor\[14\]
*678 frq_divider\.clk_divider_inst\.divisor\[15\]
*679 frq_divider\.clk_divider_inst\.divisor\[16\]
*680 frq_divider\.clk_divider_inst\.divisor\[17\]
*681 frq_divider\.clk_divider_inst\.divisor\[18\]
*682 frq_divider\.clk_divider_inst\.divisor\[19\]
*683 frq_divider\.clk_divider_inst\.divisor\[1\]
*684 frq_divider\.clk_divider_inst\.divisor\[20\]
*685 frq_divider\.clk_divider_inst\.divisor\[21\]
*686 frq_divider\.clk_divider_inst\.divisor\[22\]
*687 frq_divider\.clk_divider_inst\.divisor\[2\]
*688 frq_divider\.clk_divider_inst\.divisor\[3\]
*689 frq_divider\.clk_divider_inst\.divisor\[4\]
*690 frq_divider\.clk_divider_inst\.divisor\[5\]
*691 frq_divider\.clk_divider_inst\.divisor\[6\]
*692 frq_divider\.clk_divider_inst\.divisor\[7\]
*693 frq_divider\.clk_divider_inst\.divisor\[8\]
*694 frq_divider\.clk_divider_inst\.divisor\[9\]
*695 frq_divider\.clk_divider_inst\.flipflop1
*696 frq_divider\.clk_divider_inst\.flipflop2
*697 net1
*698 net10
*699 net11
*700 net12
*701 net13
*702 net14
*703 net15
*704 net16
*705 net17
*706 net18
*707 net19
*708 net2
*709 net20
*710 net21
*711 net3
*712 net4
*713 net5
*714 net6
*715 net7
*716 net8
*717 net9
*718 FILLER_0_0_109
*719 FILLER_0_0_113
*720 FILLER_0_0_125
*721 FILLER_0_0_137
*722 FILLER_0_0_141
*723 FILLER_0_0_15
*724 FILLER_0_0_153
*725 FILLER_0_0_165
*726 FILLER_0_0_169
*727 FILLER_0_0_181
*728 FILLER_0_0_193
*729 FILLER_0_0_197
*730 FILLER_0_0_209
*731 FILLER_0_0_221
*732 FILLER_0_0_225
*733 FILLER_0_0_237
*734 FILLER_0_0_249
*735 FILLER_0_0_253
*736 FILLER_0_0_265
*737 FILLER_0_0_27
*738 FILLER_0_0_277
*739 FILLER_0_0_281
*740 FILLER_0_0_29
*741 FILLER_0_0_293
*742 FILLER_0_0_3
*743 FILLER_0_0_305
*744 FILLER_0_0_309
*745 FILLER_0_0_321
*746 FILLER_0_0_333
*747 FILLER_0_0_41
*748 FILLER_0_0_53
*749 FILLER_0_0_57
*750 FILLER_0_0_69
*751 FILLER_0_0_81
*752 FILLER_0_0_85
*753 FILLER_0_0_97
*754 FILLER_0_10_124
*755 FILLER_0_10_136
*756 FILLER_0_10_141
*757 FILLER_0_10_145
*758 FILLER_0_10_149
*759 FILLER_0_10_15
*760 FILLER_0_10_161
*761 FILLER_0_10_173
*762 FILLER_0_10_200
*763 FILLER_0_10_208
*764 FILLER_0_10_233
*765 FILLER_0_10_242
*766 FILLER_0_10_250
*767 FILLER_0_10_253
*768 FILLER_0_10_265
*769 FILLER_0_10_27
*770 FILLER_0_10_29
*771 FILLER_0_10_292
*772 FILLER_0_10_3
*773 FILLER_0_10_307
*774 FILLER_0_10_309
*775 FILLER_0_10_321
*776 FILLER_0_10_333
*777 FILLER_0_10_41
*778 FILLER_0_10_53
*779 FILLER_0_10_65
*780 FILLER_0_10_77
*781 FILLER_0_10_83
*782 FILLER_0_10_85
*783 FILLER_0_10_97
*784 FILLER_0_11_105
*785 FILLER_0_11_111
*786 FILLER_0_11_113
*787 FILLER_0_11_117
*788 FILLER_0_11_129
*789 FILLER_0_11_15
*790 FILLER_0_11_158
*791 FILLER_0_11_166
*792 FILLER_0_11_169
*793 FILLER_0_11_177
*794 FILLER_0_11_182
*795 FILLER_0_11_194
*796 FILLER_0_11_198
*797 FILLER_0_11_214
*798 FILLER_0_11_222
*799 FILLER_0_11_225
*800 FILLER_0_11_251
*801 FILLER_0_11_259
*802 FILLER_0_11_267
*803 FILLER_0_11_27
*804 FILLER_0_11_271
*805 FILLER_0_11_279
*806 FILLER_0_11_284
*807 FILLER_0_11_290
*808 FILLER_0_11_3
*809 FILLER_0_11_317
*810 FILLER_0_11_329
*811 FILLER_0_11_39
*812 FILLER_0_11_51
*813 FILLER_0_11_55
*814 FILLER_0_11_57
*815 FILLER_0_11_69
*816 FILLER_0_11_81
*817 FILLER_0_11_93
*818 FILLER_0_12_101
*819 FILLER_0_12_110
*820 FILLER_0_12_122
*821 FILLER_0_12_130
*822 FILLER_0_12_139
*823 FILLER_0_12_141
*824 FILLER_0_12_15
*825 FILLER_0_12_153
*826 FILLER_0_12_165
*827 FILLER_0_12_184
*828 FILLER_0_12_192
*829 FILLER_0_12_197
*830 FILLER_0_12_201
*831 FILLER_0_12_205
*832 FILLER_0_12_217
*833 FILLER_0_12_225
*834 FILLER_0_12_230
*835 FILLER_0_12_242
*836 FILLER_0_12_250
*837 FILLER_0_12_253
*838 FILLER_0_12_258
*839 FILLER_0_12_266
*840 FILLER_0_12_27
*841 FILLER_0_12_29
*842 FILLER_0_12_291
*843 FILLER_0_12_3
*844 FILLER_0_12_303
*845 FILLER_0_12_307
*846 FILLER_0_12_309
*847 FILLER_0_12_321
*848 FILLER_0_12_325
*849 FILLER_0_12_333
*850 FILLER_0_12_41
*851 FILLER_0_12_45
*852 FILLER_0_12_73
*853 FILLER_0_12_81
*854 FILLER_0_12_85
*855 FILLER_0_12_97
*856 FILLER_0_13_102
*857 FILLER_0_13_111
*858 FILLER_0_13_121
*859 FILLER_0_13_133
*860 FILLER_0_13_15
*861 FILLER_0_13_156
*862 FILLER_0_13_177
*863 FILLER_0_13_183
*864 FILLER_0_13_194
*865 FILLER_0_13_213
*866 FILLER_0_13_223
*867 FILLER_0_13_232
*868 FILLER_0_13_27
*869 FILLER_0_13_274
*870 FILLER_0_13_284
*871 FILLER_0_13_290
*872 FILLER_0_13_3
*873 FILLER_0_13_31
*874 FILLER_0_13_331
*875 FILLER_0_13_55
*876 FILLER_0_13_57
*877 FILLER_0_13_63
*878 FILLER_0_13_67
*879 FILLER_0_13_98
*880 FILLER_0_14_105
*881 FILLER_0_14_109
*882 FILLER_0_14_115
*883 FILLER_0_14_119
*884 FILLER_0_14_128
*885 FILLER_0_14_15
*886 FILLER_0_14_158
*887 FILLER_0_14_162
*888 FILLER_0_14_189
*889 FILLER_0_14_195
*890 FILLER_0_14_197
*891 FILLER_0_14_20
*892 FILLER_0_14_205
*893 FILLER_0_14_209
*894 FILLER_0_14_221
*895 FILLER_0_14_229
*896 FILLER_0_14_233
*897 FILLER_0_14_239
*898 FILLER_0_14_251
*899 FILLER_0_14_253
*900 FILLER_0_14_265
*901 FILLER_0_14_277
*902 FILLER_0_14_289
*903 FILLER_0_14_29
*904 FILLER_0_14_3
*905 FILLER_0_14_301
*906 FILLER_0_14_307
*907 FILLER_0_14_309
*908 FILLER_0_14_316
*909 FILLER_0_14_327
*910 FILLER_0_14_41
*911 FILLER_0_14_53
*912 FILLER_0_14_60
*913 FILLER_0_14_72
*914 FILLER_0_14_97
*915 FILLER_0_15_123
*916 FILLER_0_15_135
*917 FILLER_0_15_143
*918 FILLER_0_15_153
*919 FILLER_0_15_165
*920 FILLER_0_15_169
*921 FILLER_0_15_177
*922 FILLER_0_15_192
*923 FILLER_0_15_216
*924 FILLER_0_15_255
*925 FILLER_0_15_276
*926 FILLER_0_15_295
*927 FILLER_0_15_299
*928 FILLER_0_15_3
*929 FILLER_0_15_312
*930 FILLER_0_15_44
*931 FILLER_0_15_52
*932 FILLER_0_15_57
*933 FILLER_0_15_78
*934 FILLER_0_15_97
*935 FILLER_0_16_104
*936 FILLER_0_16_116
*937 FILLER_0_16_122
*938 FILLER_0_16_134
*939 FILLER_0_16_141
*940 FILLER_0_16_148
*941 FILLER_0_16_15
*942 FILLER_0_16_154
*943 FILLER_0_16_168
*944 FILLER_0_16_180
*945 FILLER_0_16_184
*946 FILLER_0_16_192
*947 FILLER_0_16_202
*948 FILLER_0_16_212
*949 FILLER_0_16_223
*950 FILLER_0_16_235
*951 FILLER_0_16_243
*952 FILLER_0_16_251
*953 FILLER_0_16_262
*954 FILLER_0_16_266
*955 FILLER_0_16_27
*956 FILLER_0_16_271
*957 FILLER_0_16_283
*958 FILLER_0_16_288
*959 FILLER_0_16_29
*960 FILLER_0_16_3
*961 FILLER_0_16_302
*962 FILLER_0_16_309
*963 FILLER_0_16_321
*964 FILLER_0_16_326
*965 FILLER_0_16_334
*966 FILLER_0_16_82
*967 FILLER_0_16_85
*968 FILLER_0_16_92
*969 FILLER_0_17_122
*970 FILLER_0_17_126
*971 FILLER_0_17_13
*972 FILLER_0_17_153
*973 FILLER_0_17_159
*974 FILLER_0_17_178
*975 FILLER_0_17_194
*976 FILLER_0_17_214
*977 FILLER_0_17_22
*978 FILLER_0_17_222
*979 FILLER_0_17_236
*980 FILLER_0_17_242
*981 FILLER_0_17_251
*982 FILLER_0_17_259
*983 FILLER_0_17_273
*984 FILLER_0_17_277
*985 FILLER_0_17_28
*986 FILLER_0_17_281
*987 FILLER_0_17_293
*988 FILLER_0_17_3
*989 FILLER_0_17_300
*990 FILLER_0_17_306
*991 FILLER_0_17_311
*992 FILLER_0_17_321
*993 FILLER_0_17_327
*994 FILLER_0_17_33
*995 FILLER_0_17_45
*996 FILLER_0_17_52
*997 FILLER_0_17_60
*998 FILLER_0_17_68
*999 FILLER_0_17_9
*1000 FILLER_0_17_94
*1001 FILLER_0_18_100
*1002 FILLER_0_18_104
*1003 FILLER_0_18_114
*1004 FILLER_0_18_118
*1005 FILLER_0_18_127
*1006 FILLER_0_18_138
*1007 FILLER_0_18_141
*1008 FILLER_0_18_152
*1009 FILLER_0_18_164
*1010 FILLER_0_18_172
*1011 FILLER_0_18_176
*1012 FILLER_0_18_188
*1013 FILLER_0_18_206
*1014 FILLER_0_18_211
*1015 FILLER_0_18_219
*1016 FILLER_0_18_238
*1017 FILLER_0_18_246
*1018 FILLER_0_18_251
*1019 FILLER_0_18_261
*1020 FILLER_0_18_273
*1021 FILLER_0_18_293
*1022 FILLER_0_18_299
*1023 FILLER_0_18_306
*1024 FILLER_0_18_309
*1025 FILLER_0_18_321
*1026 FILLER_0_18_330
*1027 FILLER_0_18_334
*1028 FILLER_0_18_41
*1029 FILLER_0_18_45
*1030 FILLER_0_18_49
*1031 FILLER_0_18_61
*1032 FILLER_0_18_69
*1033 FILLER_0_18_78
*1034 FILLER_0_18_91
*1035 FILLER_0_18_96
*1036 FILLER_0_19_101
*1037 FILLER_0_19_12
*1038 FILLER_0_19_121
*1039 FILLER_0_19_129
*1040 FILLER_0_19_148
*1041 FILLER_0_19_164
*1042 FILLER_0_19_169
*1043 FILLER_0_19_181
*1044 FILLER_0_19_193
*1045 FILLER_0_19_201
*1046 FILLER_0_19_24
*1047 FILLER_0_19_240
*1048 FILLER_0_19_251
*1049 FILLER_0_19_259
*1050 FILLER_0_19_267
*1051 FILLER_0_19_271
*1052 FILLER_0_19_276
*1053 FILLER_0_19_288
*1054 FILLER_0_19_3
*1055 FILLER_0_19_32
*1056 FILLER_0_19_320
*1057 FILLER_0_19_329
*1058 FILLER_0_19_39
*1059 FILLER_0_19_51
*1060 FILLER_0_19_55
*1061 FILLER_0_19_60
*1062 FILLER_0_19_68
*1063 FILLER_0_19_77
*1064 FILLER_0_19_89
*1065 FILLER_0_1_105
*1066 FILLER_0_1_111
*1067 FILLER_0_1_113
*1068 FILLER_0_1_125
*1069 FILLER_0_1_137
*1070 FILLER_0_1_149
*1071 FILLER_0_1_15
*1072 FILLER_0_1_161
*1073 FILLER_0_1_167
*1074 FILLER_0_1_169
*1075 FILLER_0_1_181
*1076 FILLER_0_1_193
*1077 FILLER_0_1_205
*1078 FILLER_0_1_217
*1079 FILLER_0_1_223
*1080 FILLER_0_1_225
*1081 FILLER_0_1_237
*1082 FILLER_0_1_249
*1083 FILLER_0_1_261
*1084 FILLER_0_1_27
*1085 FILLER_0_1_273
*1086 FILLER_0_1_279
*1087 FILLER_0_1_281
*1088 FILLER_0_1_293
*1089 FILLER_0_1_3
*1090 FILLER_0_1_305
*1091 FILLER_0_1_317
*1092 FILLER_0_1_329
*1093 FILLER_0_1_39
*1094 FILLER_0_1_51
*1095 FILLER_0_1_55
*1096 FILLER_0_1_57
*1097 FILLER_0_1_69
*1098 FILLER_0_1_81
*1099 FILLER_0_1_93
*1100 FILLER_0_20_110
*1101 FILLER_0_20_129
*1102 FILLER_0_20_13
*1103 FILLER_0_20_137
*1104 FILLER_0_20_141
*1105 FILLER_0_20_148
*1106 FILLER_0_20_193
*1107 FILLER_0_20_197
*1108 FILLER_0_20_209
*1109 FILLER_0_20_21
*1110 FILLER_0_20_221
*1111 FILLER_0_20_233
*1112 FILLER_0_20_245
*1113 FILLER_0_20_264
*1114 FILLER_0_20_270
*1115 FILLER_0_20_287
*1116 FILLER_0_20_29
*1117 FILLER_0_20_299
*1118 FILLER_0_20_3
*1119 FILLER_0_20_307
*1120 FILLER_0_20_309
*1121 FILLER_0_20_321
*1122 FILLER_0_20_331
*1123 FILLER_0_20_40
*1124 FILLER_0_20_65
*1125 FILLER_0_20_85
*1126 FILLER_0_20_98
*1127 FILLER_0_21_106
*1128 FILLER_0_21_125
*1129 FILLER_0_21_137
*1130 FILLER_0_21_166
*1131 FILLER_0_21_169
*1132 FILLER_0_21_17
*1133 FILLER_0_21_181
*1134 FILLER_0_21_191
*1135 FILLER_0_21_209
*1136 FILLER_0_21_21
*1137 FILLER_0_21_221
*1138 FILLER_0_21_235
*1139 FILLER_0_21_244
*1140 FILLER_0_21_255
*1141 FILLER_0_21_267
*1142 FILLER_0_21_271
*1143 FILLER_0_21_279
*1144 FILLER_0_21_281
*1145 FILLER_0_21_299
*1146 FILLER_0_21_3
*1147 FILLER_0_21_313
*1148 FILLER_0_21_325
*1149 FILLER_0_21_33
*1150 FILLER_0_21_333
*1151 FILLER_0_21_43
*1152 FILLER_0_21_55
*1153 FILLER_0_21_57
*1154 FILLER_0_21_74
*1155 FILLER_0_21_82
*1156 FILLER_0_21_87
*1157 FILLER_0_22_109
*1158 FILLER_0_22_121
*1159 FILLER_0_22_133
*1160 FILLER_0_22_139
*1161 FILLER_0_22_145
*1162 FILLER_0_22_153
*1163 FILLER_0_22_180
*1164 FILLER_0_22_206
*1165 FILLER_0_22_229
*1166 FILLER_0_22_249
*1167 FILLER_0_22_253
*1168 FILLER_0_22_269
*1169 FILLER_0_22_29
*1170 FILLER_0_22_3
*1171 FILLER_0_22_304
*1172 FILLER_0_22_309
*1173 FILLER_0_22_332
*1174 FILLER_0_22_63
*1175 FILLER_0_22_83
*1176 FILLER_0_22_85
*1177 FILLER_0_22_93
*1178 FILLER_0_22_97
*1179 FILLER_0_23_111
*1180 FILLER_0_23_116
*1181 FILLER_0_23_12
*1182 FILLER_0_23_131
*1183 FILLER_0_23_135
*1184 FILLER_0_23_146
*1185 FILLER_0_23_154
*1186 FILLER_0_23_16
*1187 FILLER_0_23_164
*1188 FILLER_0_23_169
*1189 FILLER_0_23_173
*1190 FILLER_0_23_190
*1191 FILLER_0_23_20
*1192 FILLER_0_23_202
*1193 FILLER_0_23_208
*1194 FILLER_0_23_215
*1195 FILLER_0_23_219
*1196 FILLER_0_23_223
*1197 FILLER_0_23_225
*1198 FILLER_0_23_231
*1199 FILLER_0_23_239
*1200 FILLER_0_23_247
*1201 FILLER_0_23_258
*1202 FILLER_0_23_270
*1203 FILLER_0_23_276
*1204 FILLER_0_23_3
*1205 FILLER_0_23_303
*1206 FILLER_0_23_311
*1207 FILLER_0_23_315
*1208 FILLER_0_23_32
*1209 FILLER_0_23_334
*1210 FILLER_0_23_38
*1211 FILLER_0_23_46
*1212 FILLER_0_23_54
*1213 FILLER_0_23_57
*1214 FILLER_0_23_69
*1215 FILLER_0_23_91
*1216 FILLER_0_23_99
*1217 FILLER_0_24_104
*1218 FILLER_0_24_116
*1219 FILLER_0_24_128
*1220 FILLER_0_24_148
*1221 FILLER_0_24_166
*1222 FILLER_0_24_172
*1223 FILLER_0_24_185
*1224 FILLER_0_24_189
*1225 FILLER_0_24_193
*1226 FILLER_0_24_213
*1227 FILLER_0_24_230
*1228 FILLER_0_24_240
*1229 FILLER_0_24_261
*1230 FILLER_0_24_27
*1231 FILLER_0_24_286
*1232 FILLER_0_24_309
*1233 FILLER_0_24_325
*1234 FILLER_0_24_333
*1235 FILLER_0_24_36
*1236 FILLER_0_24_48
*1237 FILLER_0_24_52
*1238 FILLER_0_24_68
*1239 FILLER_0_24_74
*1240 FILLER_0_24_79
*1241 FILLER_0_24_83
*1242 FILLER_0_24_92
*1243 FILLER_0_25_11
*1244 FILLER_0_25_110
*1245 FILLER_0_25_113
*1246 FILLER_0_25_124
*1247 FILLER_0_25_136
*1248 FILLER_0_25_148
*1249 FILLER_0_25_152
*1250 FILLER_0_25_156
*1251 FILLER_0_25_169
*1252 FILLER_0_25_177
*1253 FILLER_0_25_19
*1254 FILLER_0_25_198
*1255 FILLER_0_25_204
*1256 FILLER_0_25_211
*1257 FILLER_0_25_225
*1258 FILLER_0_25_23
*1259 FILLER_0_25_237
*1260 FILLER_0_25_249
*1261 FILLER_0_25_258
*1262 FILLER_0_25_270
*1263 FILLER_0_25_281
*1264 FILLER_0_25_293
*1265 FILLER_0_25_3
*1266 FILLER_0_25_312
*1267 FILLER_0_25_325
*1268 FILLER_0_25_333
*1269 FILLER_0_25_35
*1270 FILLER_0_25_48
*1271 FILLER_0_25_57
*1272 FILLER_0_25_65
*1273 FILLER_0_25_77
*1274 FILLER_0_25_85
*1275 FILLER_0_25_95
*1276 FILLER_0_26_104
*1277 FILLER_0_26_112
*1278 FILLER_0_26_134
*1279 FILLER_0_26_166
*1280 FILLER_0_26_170
*1281 FILLER_0_26_185
*1282 FILLER_0_26_193
*1283 FILLER_0_26_204
*1284 FILLER_0_26_212
*1285 FILLER_0_26_224
*1286 FILLER_0_26_230
*1287 FILLER_0_26_240
*1288 FILLER_0_26_250
*1289 FILLER_0_26_256
*1290 FILLER_0_26_260
*1291 FILLER_0_26_272
*1292 FILLER_0_26_278
*1293 FILLER_0_26_29
*1294 FILLER_0_26_295
*1295 FILLER_0_26_3
*1296 FILLER_0_26_307
*1297 FILLER_0_26_309
*1298 FILLER_0_26_37
*1299 FILLER_0_26_41
*1300 FILLER_0_26_61
*1301 FILLER_0_26_82
*1302 FILLER_0_26_85
*1303 FILLER_0_26_93
*1304 FILLER_0_27_107
*1305 FILLER_0_27_11
*1306 FILLER_0_27_111
*1307 FILLER_0_27_113
*1308 FILLER_0_27_122
*1309 FILLER_0_27_131
*1310 FILLER_0_27_144
*1311 FILLER_0_27_156
*1312 FILLER_0_27_160
*1313 FILLER_0_27_177
*1314 FILLER_0_27_193
*1315 FILLER_0_27_201
*1316 FILLER_0_27_218
*1317 FILLER_0_27_23
*1318 FILLER_0_27_276
*1319 FILLER_0_27_289
*1320 FILLER_0_27_299
*1321 FILLER_0_27_3
*1322 FILLER_0_27_31
*1323 FILLER_0_27_311
*1324 FILLER_0_27_317
*1325 FILLER_0_27_329
*1326 FILLER_0_27_44
*1327 FILLER_0_27_57
*1328 FILLER_0_27_78
*1329 FILLER_0_27_86
*1330 FILLER_0_27_95
*1331 FILLER_0_28_116
*1332 FILLER_0_28_122
*1333 FILLER_0_28_141
*1334 FILLER_0_28_161
*1335 FILLER_0_28_173
*1336 FILLER_0_28_184
*1337 FILLER_0_28_191
*1338 FILLER_0_28_195
*1339 FILLER_0_28_197
*1340 FILLER_0_28_207
*1341 FILLER_0_28_231
*1342 FILLER_0_28_238
*1343 FILLER_0_28_250
*1344 FILLER_0_28_253
*1345 FILLER_0_28_265
*1346 FILLER_0_28_277
*1347 FILLER_0_28_289
*1348 FILLER_0_28_3
*1349 FILLER_0_28_301
*1350 FILLER_0_28_307
*1351 FILLER_0_28_32
*1352 FILLER_0_28_44
*1353 FILLER_0_28_64
*1354 FILLER_0_28_81
*1355 FILLER_0_28_85
*1356 FILLER_0_28_89
*1357 FILLER_0_28_93
*1358 FILLER_0_28_98
*1359 FILLER_0_29_11
*1360 FILLER_0_29_113
*1361 FILLER_0_29_119
*1362 FILLER_0_29_127
*1363 FILLER_0_29_131
*1364 FILLER_0_29_143
*1365 FILLER_0_29_17
*1366 FILLER_0_29_178
*1367 FILLER_0_29_195
*1368 FILLER_0_29_214
*1369 FILLER_0_29_222
*1370 FILLER_0_29_225
*1371 FILLER_0_29_233
*1372 FILLER_0_29_252
*1373 FILLER_0_29_275
*1374 FILLER_0_29_281
*1375 FILLER_0_29_3
*1376 FILLER_0_29_306
*1377 FILLER_0_29_314
*1378 FILLER_0_29_326
*1379 FILLER_0_29_334
*1380 FILLER_0_29_36
*1381 FILLER_0_29_43
*1382 FILLER_0_29_54
*1383 FILLER_0_29_57
*1384 FILLER_0_29_65
*1385 FILLER_0_29_7
*1386 FILLER_0_29_72
*1387 FILLER_0_29_84
*1388 FILLER_0_29_90
*1389 FILLER_0_2_109
*1390 FILLER_0_2_121
*1391 FILLER_0_2_133
*1392 FILLER_0_2_139
*1393 FILLER_0_2_141
*1394 FILLER_0_2_15
*1395 FILLER_0_2_153
*1396 FILLER_0_2_165
*1397 FILLER_0_2_177
*1398 FILLER_0_2_189
*1399 FILLER_0_2_195
*1400 FILLER_0_2_197
*1401 FILLER_0_2_209
*1402 FILLER_0_2_221
*1403 FILLER_0_2_233
*1404 FILLER_0_2_245
*1405 FILLER_0_2_251
*1406 FILLER_0_2_253
*1407 FILLER_0_2_265
*1408 FILLER_0_2_27
*1409 FILLER_0_2_277
*1410 FILLER_0_2_289
*1411 FILLER_0_2_29
*1412 FILLER_0_2_3
*1413 FILLER_0_2_301
*1414 FILLER_0_2_307
*1415 FILLER_0_2_309
*1416 FILLER_0_2_321
*1417 FILLER_0_2_333
*1418 FILLER_0_2_41
*1419 FILLER_0_2_53
*1420 FILLER_0_2_65
*1421 FILLER_0_2_77
*1422 FILLER_0_2_83
*1423 FILLER_0_2_85
*1424 FILLER_0_2_97
*1425 FILLER_0_30_110
*1426 FILLER_0_30_137
*1427 FILLER_0_30_148
*1428 FILLER_0_30_15
*1429 FILLER_0_30_156
*1430 FILLER_0_30_161
*1431 FILLER_0_30_169
*1432 FILLER_0_30_180
*1433 FILLER_0_30_19
*1434 FILLER_0_30_192
*1435 FILLER_0_30_197
*1436 FILLER_0_30_209
*1437 FILLER_0_30_213
*1438 FILLER_0_30_222
*1439 FILLER_0_30_250
*1440 FILLER_0_30_253
*1441 FILLER_0_30_268
*1442 FILLER_0_30_27
*1443 FILLER_0_30_276
*1444 FILLER_0_30_284
*1445 FILLER_0_30_296
*1446 FILLER_0_30_3
*1447 FILLER_0_30_309
*1448 FILLER_0_30_32
*1449 FILLER_0_30_57
*1450 FILLER_0_30_82
*1451 FILLER_0_30_85
*1452 FILLER_0_30_89
*1453 FILLER_0_30_98
*1454 FILLER_0_31_109
*1455 FILLER_0_31_122
*1456 FILLER_0_31_141
*1457 FILLER_0_31_149
*1458 FILLER_0_31_166
*1459 FILLER_0_31_169
*1460 FILLER_0_31_187
*1461 FILLER_0_31_206
*1462 FILLER_0_31_220
*1463 FILLER_0_31_225
*1464 FILLER_0_31_229
*1465 FILLER_0_31_245
*1466 FILLER_0_31_276
*1467 FILLER_0_31_281
*1468 FILLER_0_31_3
*1469 FILLER_0_31_318
*1470 FILLER_0_31_330
*1471 FILLER_0_31_334
*1472 FILLER_0_31_38
*1473 FILLER_0_31_44
*1474 FILLER_0_31_60
*1475 FILLER_0_31_81
*1476 FILLER_0_31_89
*1477 FILLER_0_32_119
*1478 FILLER_0_32_131
*1479 FILLER_0_32_139
*1480 FILLER_0_32_141
*1481 FILLER_0_32_15
*1482 FILLER_0_32_153
*1483 FILLER_0_32_164
*1484 FILLER_0_32_176
*1485 FILLER_0_32_188
*1486 FILLER_0_32_203
*1487 FILLER_0_32_212
*1488 FILLER_0_32_216
*1489 FILLER_0_32_226
*1490 FILLER_0_32_249
*1491 FILLER_0_32_253
*1492 FILLER_0_32_27
*1493 FILLER_0_32_277
*1494 FILLER_0_32_29
*1495 FILLER_0_32_299
*1496 FILLER_0_32_3
*1497 FILLER_0_32_307
*1498 FILLER_0_32_309
*1499 FILLER_0_32_333
*1500 FILLER_0_32_41
*1501 FILLER_0_32_53
*1502 FILLER_0_32_65
*1503 FILLER_0_32_77
*1504 FILLER_0_32_82
*1505 FILLER_0_32_94
*1506 FILLER_0_32_99
*1507 FILLER_0_33_104
*1508 FILLER_0_33_113
*1509 FILLER_0_33_121
*1510 FILLER_0_33_15
*1511 FILLER_0_33_154
*1512 FILLER_0_33_159
*1513 FILLER_0_33_167
*1514 FILLER_0_33_169
*1515 FILLER_0_33_173
*1516 FILLER_0_33_178
*1517 FILLER_0_33_196
*1518 FILLER_0_33_200
*1519 FILLER_0_33_206
*1520 FILLER_0_33_218
*1521 FILLER_0_33_225
*1522 FILLER_0_33_237
*1523 FILLER_0_33_245
*1524 FILLER_0_33_256
*1525 FILLER_0_33_263
*1526 FILLER_0_33_27
*1527 FILLER_0_33_271
*1528 FILLER_0_33_279
*1529 FILLER_0_33_281
*1530 FILLER_0_33_293
*1531 FILLER_0_33_3
*1532 FILLER_0_33_302
*1533 FILLER_0_33_314
*1534 FILLER_0_33_326
*1535 FILLER_0_33_334
*1536 FILLER_0_33_39
*1537 FILLER_0_33_51
*1538 FILLER_0_33_55
*1539 FILLER_0_33_57
*1540 FILLER_0_33_69
*1541 FILLER_0_33_98
*1542 FILLER_0_34_114
*1543 FILLER_0_34_118
*1544 FILLER_0_34_128
*1545 FILLER_0_34_149
*1546 FILLER_0_34_15
*1547 FILLER_0_34_169
*1548 FILLER_0_34_178
*1549 FILLER_0_34_195
*1550 FILLER_0_34_204
*1551 FILLER_0_34_234
*1552 FILLER_0_34_251
*1553 FILLER_0_34_256
*1554 FILLER_0_34_260
*1555 FILLER_0_34_27
*1556 FILLER_0_34_273
*1557 FILLER_0_34_277
*1558 FILLER_0_34_289
*1559 FILLER_0_34_29
*1560 FILLER_0_34_295
*1561 FILLER_0_34_3
*1562 FILLER_0_34_309
*1563 FILLER_0_34_41
*1564 FILLER_0_34_53
*1565 FILLER_0_34_65
*1566 FILLER_0_34_77
*1567 FILLER_0_34_83
*1568 FILLER_0_34_88
*1569 FILLER_0_34_96
*1570 FILLER_0_35_109
*1571 FILLER_0_35_113
*1572 FILLER_0_35_137
*1573 FILLER_0_35_15
*1574 FILLER_0_35_155
*1575 FILLER_0_35_167
*1576 FILLER_0_35_169
*1577 FILLER_0_35_184
*1578 FILLER_0_35_196
*1579 FILLER_0_35_202
*1580 FILLER_0_35_209
*1581 FILLER_0_35_221
*1582 FILLER_0_35_225
*1583 FILLER_0_35_237
*1584 FILLER_0_35_252
*1585 FILLER_0_35_264
*1586 FILLER_0_35_27
*1587 FILLER_0_35_276
*1588 FILLER_0_35_3
*1589 FILLER_0_35_300
*1590 FILLER_0_35_321
*1591 FILLER_0_35_333