*SPEF "ieee 1481-1999"
*DESIGN "tt_um_array_multiplier_hhrb98"
*DATE "06:49:49 Thursday April 18, 2024"
*VENDOR "The OpenROAD Project"
*PROGRAM "OpenROAD"
*VERSION "0889970d1790a2617e69f253221b8bd7626e51dc"
*DESIGN_FLOW "NAME_SCOPE LOCAL" "PIN_CAP NONE"
*DIVIDER /
*DELIMITER :
*BUS_DELIMITER []
*T_UNIT 1 NS
*C_UNIT 1 PF
*R_UNIT 1 OHM
*L_UNIT 1 HENRY

*NAME_MAP
*3 clk
*4 ena
*5 rst_n
*6 ui_in[0]
*7 ui_in[1]
*8 ui_in[2]
*9 ui_in[3]
*10 ui_in[4]
*11 ui_in[5]
*12 ui_in[6]
*13 ui_in[7]
*14 uio_in[0]
*15 uio_in[1]
*16 uio_in[2]
*17 uio_in[3]
*18 uio_in[4]
*19 uio_in[5]
*20 uio_in[6]
*21 uio_in[7]
*22 net9
*23 net10
*24 net11
*25 net12
*26 net13
*27 net14
*28 net15
*29 net16
*30 net17
*31 net18
*32 net19
*33 net20
*34 net21
*35 net22
*36 net23
*37 net24
*38 uo_out[0]
*39 uo_out[1]
*40 uo_out[2]
*41 uo_out[3]
*42 uo_out[4]
*43 uo_out[5]
*44 uo_out[6]
*45 uo_out[7]
*46 _000_
*47 _001_
*48 _002_
*49 _003_
*50 _004_
*51 _005_
*52 _006_
*53 _007_
*54 _008_
*55 _009_
*56 _010_
*57 _011_
*58 _012_
*59 _013_
*60 _014_
*61 _015_
*62 _016_
*63 _017_
*64 _018_
*65 _019_
*66 _020_
*67 _021_
*68 _022_
*69 _023_
*70 _024_
*71 _025_
*72 _026_
*73 _027_
*74 _028_
*75 _029_
*76 _030_
*77 _031_
*78 _032_
*79 _033_
*80 _034_
*81 _035_
*82 _036_
*83 _037_
*84 _038_
*85 _039_
*86 _040_
*87 _041_
*88 _042_
*89 _043_
*90 _044_
*91 _045_
*92 _046_
*93 _047_
*94 _048_
*95 a17\.s
*96 a20\.s
*97 a23\.s
*98 a26\.s
*99 a27\.s
*100 a28\.ca
*101 a28\.s
*102 net1
*103 net2
*104 net3
*105 net4
*106 net5
*107 net6
*108 net7
*109 net8
*110 FILLER_0_0_109
*111 FILLER_0_0_113
*112 FILLER_0_0_125
*113 FILLER_0_0_137
*114 FILLER_0_0_141
*115 FILLER_0_0_15
*116 FILLER_0_0_153
*117 FILLER_0_0_165
*118 FILLER_0_0_169
*119 FILLER_0_0_181
*120 FILLER_0_0_193
*121 FILLER_0_0_197
*122 FILLER_0_0_209
*123 FILLER_0_0_221
*124 FILLER_0_0_225
*125 FILLER_0_0_237
*126 FILLER_0_0_249
*127 FILLER_0_0_253
*128 FILLER_0_0_265
*129 FILLER_0_0_27
*130 FILLER_0_0_277
*131 FILLER_0_0_281
*132 FILLER_0_0_29
*133 FILLER_0_0_293
*134 FILLER_0_0_3
*135 FILLER_0_0_305
*136 FILLER_0_0_309
*137 FILLER_0_0_321
*138 FILLER_0_0_333
*139 FILLER_0_0_41
*140 FILLER_0_0_53
*141 FILLER_0_0_57
*142 FILLER_0_0_69
*143 FILLER_0_0_81
*144 FILLER_0_0_85
*145 FILLER_0_0_97
*146 FILLER_0_10_109
*147 FILLER_0_10_121
*148 FILLER_0_10_133
*149 FILLER_0_10_139
*150 FILLER_0_10_141
*151 FILLER_0_10_15
*152 FILLER_0_10_153
*153 FILLER_0_10_165
*154 FILLER_0_10_177
*155 FILLER_0_10_189
*156 FILLER_0_10_195
*157 FILLER_0_10_197
*158 FILLER_0_10_209
*159 FILLER_0_10_221
*160 FILLER_0_10_233
*161 FILLER_0_10_245
*162 FILLER_0_10_251
*163 FILLER_0_10_253
*164 FILLER_0_10_265
*165 FILLER_0_10_27
*166 FILLER_0_10_277
*167 FILLER_0_10_289
*168 FILLER_0_10_29
*169 FILLER_0_10_3
*170 FILLER_0_10_301
*171 FILLER_0_10_307
*172 FILLER_0_10_309
*173 FILLER_0_10_321
*174 FILLER_0_10_333
*175 FILLER_0_10_41
*176 FILLER_0_10_53
*177 FILLER_0_10_65
*178 FILLER_0_10_77
*179 FILLER_0_10_83
*180 FILLER_0_10_85
*181 FILLER_0_10_97
*182 FILLER_0_11_105
*183 FILLER_0_11_111
*184 FILLER_0_11_113
*185 FILLER_0_11_125
*186 FILLER_0_11_137
*187 FILLER_0_11_149
*188 FILLER_0_11_15
*189 FILLER_0_11_161
*190 FILLER_0_11_167
*191 FILLER_0_11_169
*192 FILLER_0_11_181
*193 FILLER_0_11_193
*194 FILLER_0_11_205
*195 FILLER_0_11_217
*196 FILLER_0_11_223
*197 FILLER_0_11_225
*198 FILLER_0_11_237
*199 FILLER_0_11_249
*200 FILLER_0_11_261
*201 FILLER_0_11_27
*202 FILLER_0_11_273
*203 FILLER_0_11_279
*204 FILLER_0_11_281
*205 FILLER_0_11_293
*206 FILLER_0_11_3
*207 FILLER_0_11_305
*208 FILLER_0_11_317
*209 FILLER_0_11_329
*210 FILLER_0_11_39
*211 FILLER_0_11_51
*212 FILLER_0_11_55
*213 FILLER_0_11_57
*214 FILLER_0_11_69
*215 FILLER_0_11_81
*216 FILLER_0_11_93
*217 FILLER_0_12_109
*218 FILLER_0_12_121
*219 FILLER_0_12_133
*220 FILLER_0_12_139
*221 FILLER_0_12_141
*222 FILLER_0_12_15
*223 FILLER_0_12_153
*224 FILLER_0_12_165
*225 FILLER_0_12_177
*226 FILLER_0_12_189
*227 FILLER_0_12_195
*228 FILLER_0_12_197
*229 FILLER_0_12_209
*230 FILLER_0_12_221
*231 FILLER_0_12_233
*232 FILLER_0_12_245
*233 FILLER_0_12_251
*234 FILLER_0_12_253
*235 FILLER_0_12_265
*236 FILLER_0_12_27
*237 FILLER_0_12_277
*238 FILLER_0_12_289
*239 FILLER_0_12_29
*240 FILLER_0_12_3
*241 FILLER_0_12_301
*242 FILLER_0_12_307
*243 FILLER_0_12_309
*244 FILLER_0_12_321
*245 FILLER_0_12_333
*246 FILLER_0_12_41
*247 FILLER_0_12_53
*248 FILLER_0_12_65
*249 FILLER_0_12_77
*250 FILLER_0_12_83
*251 FILLER_0_12_85
*252 FILLER_0_12_97
*253 FILLER_0_13_105
*254 FILLER_0_13_111
*255 FILLER_0_13_113
*256 FILLER_0_13_125
*257 FILLER_0_13_137
*258 FILLER_0_13_149
*259 FILLER_0_13_15
*260 FILLER_0_13_161
*261 FILLER_0_13_167
*262 FILLER_0_13_169
*263 FILLER_0_13_181
*264 FILLER_0_13_193
*265 FILLER_0_13_205
*266 FILLER_0_13_217
*267 FILLER_0_13_223
*268 FILLER_0_13_225
*269 FILLER_0_13_237
*270 FILLER_0_13_249
*271 FILLER_0_13_261
*272 FILLER_0_13_27
*273 FILLER_0_13_273
*274 FILLER_0_13_279
*275 FILLER_0_13_281
*276 FILLER_0_13_293
*277 FILLER_0_13_3
*278 FILLER_0_13_305
*279 FILLER_0_13_317
*280 FILLER_0_13_329
*281 FILLER_0_13_39
*282 FILLER_0_13_51
*283 FILLER_0_13_55
*284 FILLER_0_13_57
*285 FILLER_0_13_69
*286 FILLER_0_13_81
*287 FILLER_0_13_93
*288 FILLER_0_14_109
*289 FILLER_0_14_121
*290 FILLER_0_14_133
*291 FILLER_0_14_139
*292 FILLER_0_14_141
*293 FILLER_0_14_15
*294 FILLER_0_14_153
*295 FILLER_0_14_165
*296 FILLER_0_14_177
*297 FILLER_0_14_189
*298 FILLER_0_14_195
*299 FILLER_0_14_197
*300 FILLER_0_14_209
*301 FILLER_0_14_221
*302 FILLER_0_14_233
*303 FILLER_0_14_245
*304 FILLER_0_14_251
*305 FILLER_0_14_253
*306 FILLER_0_14_265
*307 FILLER_0_14_27
*308 FILLER_0_14_277
*309 FILLER_0_14_289
*310 FILLER_0_14_29
*311 FILLER_0_14_3
*312 FILLER_0_14_301
*313 FILLER_0_14_307
*314 FILLER_0_14_309
*315 FILLER_0_14_321
*316 FILLER_0_14_333
*317 FILLER_0_14_41
*318 FILLER_0_14_53
*319 FILLER_0_14_65
*320 FILLER_0_14_77
*321 FILLER_0_14_83
*322 FILLER_0_14_85
*323 FILLER_0_14_97
*324 FILLER_0_15_105
*325 FILLER_0_15_111
*326 FILLER_0_15_113
*327 FILLER_0_15_125
*328 FILLER_0_15_137
*329 FILLER_0_15_149
*330 FILLER_0_15_15
*331 FILLER_0_15_161
*332 FILLER_0_15_167
*333 FILLER_0_15_169
*334 FILLER_0_15_181
*335 FILLER_0_15_193
*336 FILLER_0_15_205
*337 FILLER_0_15_217
*338 FILLER_0_15_223
*339 FILLER_0_15_225
*340 FILLER_0_15_237
*341 FILLER_0_15_249
*342 FILLER_0_15_261
*343 FILLER_0_15_27
*344 FILLER_0_15_273
*345 FILLER_0_15_279
*346 FILLER_0_15_281
*347 FILLER_0_15_293
*348 FILLER_0_15_3
*349 FILLER_0_15_305
*350 FILLER_0_15_317
*351 FILLER_0_15_329
*352 FILLER_0_15_39
*353 FILLER_0_15_51
*354 FILLER_0_15_55
*355 FILLER_0_15_57
*356 FILLER_0_15_69
*357 FILLER_0_15_81
*358 FILLER_0_15_93
*359 FILLER_0_16_109
*360 FILLER_0_16_121
*361 FILLER_0_16_133
*362 FILLER_0_16_139
*363 FILLER_0_16_141
*364 FILLER_0_16_15
*365 FILLER_0_16_153
*366 FILLER_0_16_165
*367 FILLER_0_16_177
*368 FILLER_0_16_189
*369 FILLER_0_16_195
*370 FILLER_0_16_197
*371 FILLER_0_16_209
*372 FILLER_0_16_221
*373 FILLER_0_16_233
*374 FILLER_0_16_245
*375 FILLER_0_16_251
*376 FILLER_0_16_253
*377 FILLER_0_16_265
*378 FILLER_0_16_27
*379 FILLER_0_16_277
*380 FILLER_0_16_289
*381 FILLER_0_16_29
*382 FILLER_0_16_3
*383 FILLER_0_16_301
*384 FILLER_0_16_307
*385 FILLER_0_16_309
*386 FILLER_0_16_321
*387 FILLER_0_16_333
*388 FILLER_0_16_41
*389 FILLER_0_16_53
*390 FILLER_0_16_65
*391 FILLER_0_16_77
*392 FILLER_0_16_83
*393 FILLER_0_16_85
*394 FILLER_0_16_97
*395 FILLER_0_17_105
*396 FILLER_0_17_111
*397 FILLER_0_17_113
*398 FILLER_0_17_125
*399 FILLER_0_17_137
*400 FILLER_0_17_149
*401 FILLER_0_17_15
*402 FILLER_0_17_161
*403 FILLER_0_17_167
*404 FILLER_0_17_169
*405 FILLER_0_17_181
*406 FILLER_0_17_193
*407 FILLER_0_17_205
*408 FILLER_0_17_217
*409 FILLER_0_17_223
*410 FILLER_0_17_225
*411 FILLER_0_17_237
*412 FILLER_0_17_249
*413 FILLER_0_17_261
*414 FILLER_0_17_27
*415 FILLER_0_17_273
*416 FILLER_0_17_279
*417 FILLER_0_17_281
*418 FILLER_0_17_293
*419 FILLER_0_17_3
*420 FILLER_0_17_305
*421 FILLER_0_17_317
*422 FILLER_0_17_329
*423 FILLER_0_17_39
*424 FILLER_0_17_51
*425 FILLER_0_17_55
*426 FILLER_0_17_57
*427 FILLER_0_17_69
*428 FILLER_0_17_81
*429 FILLER_0_17_93
*430 FILLER_0_18_109
*431 FILLER_0_18_121
*432 FILLER_0_18_133
*433 FILLER_0_18_139
*434 FILLER_0_18_141
*435 FILLER_0_18_15
*436 FILLER_0_18_153
*437 FILLER_0_18_165
*438 FILLER_0_18_177
*439 FILLER_0_18_189
*440 FILLER_0_18_195
*441 FILLER_0_18_197
*442 FILLER_0_18_209
*443 FILLER_0_18_221
*444 FILLER_0_18_233
*445 FILLER_0_18_245
*446 FILLER_0_18_251
*447 FILLER_0_18_253
*448 FILLER_0_18_265
*449 FILLER_0_18_27
*450 FILLER_0_18_277
*451 FILLER_0_18_289
*452 FILLER_0_18_29
*453 FILLER_0_18_3
*454 FILLER_0_18_301
*455 FILLER_0_18_307
*456 FILLER_0_18_309
*457 FILLER_0_18_321
*458 FILLER_0_18_333
*459 FILLER_0_18_41
*460 FILLER_0_18_53
*461 FILLER_0_18_65
*462 FILLER_0_18_77
*463 FILLER_0_18_83
*464 FILLER_0_18_85
*465 FILLER_0_18_97
*466 FILLER_0_19_105
*467 FILLER_0_19_111
*468 FILLER_0_19_113
*469 FILLER_0_19_125
*470 FILLER_0_19_137
*471 FILLER_0_19_149
*472 FILLER_0_19_15
*473 FILLER_0_19_161
*474 FILLER_0_19_167
*475 FILLER_0_19_169
*476 FILLER_0_19_181
*477 FILLER_0_19_193
*478 FILLER_0_19_205
*479 FILLER_0_19_217
*480 FILLER_0_19_223
*481 FILLER_0_19_225
*482 FILLER_0_19_237
*483 FILLER_0_19_249
*484 FILLER_0_19_261
*485 FILLER_0_19_27
*486 FILLER_0_19_273
*487 FILLER_0_19_279
*488 FILLER_0_19_281
*489 FILLER_0_19_293
*490 FILLER_0_19_3
*491 FILLER_0_19_305
*492 FILLER_0_19_317
*493 FILLER_0_19_329
*494 FILLER_0_19_39
*495 FILLER_0_19_51
*496 FILLER_0_19_55
*497 FILLER_0_19_57
*498 FILLER_0_19_69
*499 FILLER_0_19_81
*500 FILLER_0_19_93
*501 FILLER_0_1_105
*502 FILLER_0_1_111
*503 FILLER_0_1_113
*504 FILLER_0_1_125
*505 FILLER_0_1_137
*506 FILLER_0_1_149
*507 FILLER_0_1_15
*508 FILLER_0_1_161
*509 FILLER_0_1_167
*510 FILLER_0_1_169
*511 FILLER_0_1_181
*512 FILLER_0_1_193
*513 FILLER_0_1_205
*514 FILLER_0_1_217
*515 FILLER_0_1_223
*516 FILLER_0_1_225
*517 FILLER_0_1_237
*518 FILLER_0_1_249
*519 FILLER_0_1_261
*520 FILLER_0_1_27
*521 FILLER_0_1_273
*522 FILLER_0_1_279
*523 FILLER_0_1_281
*524 FILLER_0_1_293
*525 FILLER_0_1_3
*526 FILLER_0_1_305
*527 FILLER_0_1_317
*528 FILLER_0_1_329
*529 FILLER_0_1_39
*530 FILLER_0_1_51
*531 FILLER_0_1_55
*532 FILLER_0_1_57
*533 FILLER_0_1_69
*534 FILLER_0_1_81
*535 FILLER_0_1_93
*536 FILLER_0_20_109
*537 FILLER_0_20_121
*538 FILLER_0_20_133
*539 FILLER_0_20_139
*540 FILLER_0_20_141
*541 FILLER_0_20_15
*542 FILLER_0_20_153
*543 FILLER_0_20_165
*544 FILLER_0_20_177
*545 FILLER_0_20_189
*546 FILLER_0_20_195
*547 FILLER_0_20_197
*548 FILLER_0_20_209
*549 FILLER_0_20_221
*550 FILLER_0_20_233
*551 FILLER_0_20_245
*552 FILLER_0_20_251
*553 FILLER_0_20_253
*554 FILLER_0_20_265
*555 FILLER_0_20_27
*556 FILLER_0_20_277
*557 FILLER_0_20_289
*558 FILLER_0_20_29
*559 FILLER_0_20_3
*560 FILLER_0_20_301
*561 FILLER_0_20_307
*562 FILLER_0_20_309
*563 FILLER_0_20_321
*564 FILLER_0_20_333
*565 FILLER_0_20_41
*566 FILLER_0_20_53
*567 FILLER_0_20_65
*568 FILLER_0_20_77
*569 FILLER_0_20_83
*570 FILLER_0_20_85
*571 FILLER_0_20_97
*572 FILLER_0_21_105
*573 FILLER_0_21_111
*574 FILLER_0_21_113
*575 FILLER_0_21_125
*576 FILLER_0_21_137
*577 FILLER_0_21_149
*578 FILLER_0_21_15
*579 FILLER_0_21_161
*580 FILLER_0_21_167
*581 FILLER_0_21_169
*582 FILLER_0_21_181
*583 FILLER_0_21_193
*584 FILLER_0_21_205
*585 FILLER_0_21_217
*586 FILLER_0_21_223
*587 FILLER_0_21_225
*588 FILLER_0_21_237
*589 FILLER_0_21_249
*590 FILLER_0_21_261
*591 FILLER_0_21_27
*592 FILLER_0_21_273
*593 FILLER_0_21_279
*594 FILLER_0_21_281
*595 FILLER_0_21_293
*596 FILLER_0_21_3
*597 FILLER_0_21_305
*598 FILLER_0_21_317
*599 FILLER_0_21_329
*600 FILLER_0_21_39
*601 FILLER_0_21_51
*602 FILLER_0_21_55
*603 FILLER_0_21_57
*604 FILLER_0_21_69
*605 FILLER_0_21_81
*606 FILLER_0_21_93
*607 FILLER_0_22_109
*608 FILLER_0_22_121
*609 FILLER_0_22_133
*610 FILLER_0_22_139
*611 FILLER_0_22_141
*612 FILLER_0_22_15
*613 FILLER_0_22_153
*614 FILLER_0_22_165
*615 FILLER_0_22_177
*616 FILLER_0_22_189
*617 FILLER_0_22_195
*618 FILLER_0_22_197
*619 FILLER_0_22_209
*620 FILLER_0_22_221
*621 FILLER_0_22_233
*622 FILLER_0_22_245
*623 FILLER_0_22_251
*624 FILLER_0_22_253
*625 FILLER_0_22_265
*626 FILLER_0_22_27
*627 FILLER_0_22_277
*628 FILLER_0_22_289
*629 FILLER_0_22_29
*630 FILLER_0_22_3
*631 FILLER_0_22_301
*632 FILLER_0_22_307
*633 FILLER_0_22_309
*634 FILLER_0_22_321
*635 FILLER_0_22_333
*636 FILLER_0_22_41
*637 FILLER_0_22_53
*638 FILLER_0_22_65
*639 FILLER_0_22_77
*640 FILLER_0_22_83
*641 FILLER_0_22_85
*642 FILLER_0_22_97
*643 FILLER_0_23_105
*644 FILLER_0_23_111
*645 FILLER_0_23_113
*646 FILLER_0_23_125
*647 FILLER_0_23_137
*648 FILLER_0_23_149
*649 FILLER_0_23_15
*650 FILLER_0_23_161
*651 FILLER_0_23_167
*652 FILLER_0_23_169
*653 FILLER_0_23_181
*654 FILLER_0_23_193
*655 FILLER_0_23_205
*656 FILLER_0_23_217
*657 FILLER_0_23_223
*658 FILLER_0_23_225
*659 FILLER_0_23_237
*660 FILLER_0_23_249
*661 FILLER_0_23_261
*662 FILLER_0_23_27
*663 FILLER_0_23_273
*664 FILLER_0_23_279
*665 FILLER_0_23_281
*666 FILLER_0_23_293
*667 FILLER_0_23_3
*668 FILLER_0_23_305
*669 FILLER_0_23_317
*670 FILLER_0_23_329
*671 FILLER_0_23_39
*672 FILLER_0_23_51
*673 FILLER_0_23_55
*674 FILLER_0_23_57
*675 FILLER_0_23_69
*676 FILLER_0_23_81
*677 FILLER_0_23_93
*678 FILLER_0_24_109
*679 FILLER_0_24_121
*680 FILLER_0_24_133
*681 FILLER_0_24_139
*682 FILLER_0_24_141
*683 FILLER_0_24_15
*684 FILLER_0_24_153
*685 FILLER_0_24_165
*686 FILLER_0_24_177
*687 FILLER_0_24_189
*688 FILLER_0_24_195
*689 FILLER_0_24_197
*690 FILLER_0_24_209
*691 FILLER_0_24_221
*692 FILLER_0_24_233
*693 FILLER_0_24_245
*694 FILLER_0_24_251
*695 FILLER_0_24_253
*696 FILLER_0_24_265
*697 FILLER_0_24_27
*698 FILLER_0_24_277
*699 FILLER_0_24_289
*700 FILLER_0_24_29
*701 FILLER_0_24_3
*702 FILLER_0_24_301
*703 FILLER_0_24_307
*704 FILLER_0_24_309
*705 FILLER_0_24_321
*706 FILLER_0_24_333
*707 FILLER_0_24_41
*708 FILLER_0_24_53
*709 FILLER_0_24_65
*710 FILLER_0_24_77
*711 FILLER_0_24_83
*712 FILLER_0_24_85
*713 FILLER_0_24_97
*714 FILLER_0_25_105
*715 FILLER_0_25_111
*716 FILLER_0_25_113
*717 FILLER_0_25_125
*718 FILLER_0_25_137
*719 FILLER_0_25_149
*720 FILLER_0_25_15
*721 FILLER_0_25_161
*722 FILLER_0_25_167
*723 FILLER_0_25_169
*724 FILLER_0_25_181
*725 FILLER_0_25_193
*726 FILLER_0_25_205
*727 FILLER_0_25_217
*728 FILLER_0_25_223
*729 FILLER_0_25_225
*730 FILLER_0_25_237
*731 FILLER_0_25_249
*732 FILLER_0_25_261
*733 FILLER_0_25_27
*734 FILLER_0_25_273
*735 FILLER_0_25_279
*736 FILLER_0_25_281
*737 FILLER_0_25_293
*738 FILLER_0_25_3
*739 FILLER_0_25_305
*740 FILLER_0_25_317
*741 FILLER_0_25_329
*742 FILLER_0_25_39
*743 FILLER_0_25_51
*744 FILLER_0_25_55
*745 FILLER_0_25_57
*746 FILLER_0_25_69
*747 FILLER_0_25_81
*748 FILLER_0_25_93
*749 FILLER_0_26_109
*750 FILLER_0_26_121
*751 FILLER_0_26_133
*752 FILLER_0_26_139
*753 FILLER_0_26_141
*754 FILLER_0_26_15
*755 FILLER_0_26_153
*756 FILLER_0_26_165
*757 FILLER_0_26_177
*758 FILLER_0_26_189
*759 FILLER_0_26_195
*760 FILLER_0_26_197
*761 FILLER_0_26_209
*762 FILLER_0_26_221
*763 FILLER_0_26_233
*764 FILLER_0_26_245
*765 FILLER_0_26_251
*766 FILLER_0_26_253
*767 FILLER_0_26_265
*768 FILLER_0_26_27
*769 FILLER_0_26_277
*770 FILLER_0_26_289
*771 FILLER_0_26_29
*772 FILLER_0_26_3
*773 FILLER_0_26_301
*774 FILLER_0_26_307
*775 FILLER_0_26_309
*776 FILLER_0_26_321
*777 FILLER_0_26_333
*778 FILLER_0_26_41
*779 FILLER_0_26_53
*780 FILLER_0_26_65
*781 FILLER_0_26_77
*782 FILLER_0_26_83
*783 FILLER_0_26_85
*784 FILLER_0_26_97
*785 FILLER_0_27_105
*786 FILLER_0_27_111
*787 FILLER_0_27_113
*788 FILLER_0_27_125
*789 FILLER_0_27_137
*790 FILLER_0_27_149
*791 FILLER_0_27_15
*792 FILLER_0_27_161
*793 FILLER_0_27_167
*794 FILLER_0_27_169
*795 FILLER_0_27_181
*796 FILLER_0_27_193
*797 FILLER_0_27_205
*798 FILLER_0_27_217
*799 FILLER_0_27_223
*800 FILLER_0_27_225
*801 FILLER_0_27_237
*802 FILLER_0_27_249
*803 FILLER_0_27_261
*804 FILLER_0_27_27
*805 FILLER_0_27_273
*806 FILLER_0_27_279
*807 FILLER_0_27_281
*808 FILLER_0_27_293
*809 FILLER_0_27_3
*810 FILLER_0_27_305
*811 FILLER_0_27_317
*812 FILLER_0_27_329
*813 FILLER_0_27_39
*814 FILLER_0_27_51
*815 FILLER_0_27_55
*816 FILLER_0_27_57
*817 FILLER_0_27_69
*818 FILLER_0_27_81
*819 FILLER_0_27_93
*820 FILLER_0_28_109
*821 FILLER_0_28_121
*822 FILLER_0_28_133
*823 FILLER_0_28_139
*824 FILLER_0_28_141
*825 FILLER_0_28_15
*826 FILLER_0_28_153
*827 FILLER_0_28_165
*828 FILLER_0_28_177
*829 FILLER_0_28_189
*830 FILLER_0_28_195
*831 FILLER_0_28_197
*832 FILLER_0_28_209
*833 FILLER_0_28_221
*834 FILLER_0_28_233
*835 FILLER_0_28_245
*836 FILLER_0_28_251
*837 FILLER_0_28_253
*838 FILLER_0_28_265
*839 FILLER_0_28_27
*840 FILLER_0_28_277
*841 FILLER_0_28_289
*842 FILLER_0_28_29
*843 FILLER_0_28_3
*844 FILLER_0_28_301
*845 FILLER_0_28_307
*846 FILLER_0_28_309
*847 FILLER_0_28_321
*848 FILLER_0_28_333
*849 FILLER_0_28_41
*850 FILLER_0_28_53
*851 FILLER_0_28_65
*852 FILLER_0_28_77
*853 FILLER_0_28_83
*854 FILLER_0_28_85
*855 FILLER_0_28_97
*856 FILLER_0_29_105
*857 FILLER_0_29_111
*858 FILLER_0_29_113
*859 FILLER_0_29_125
*860 FILLER_0_29_137
*861 FILLER_0_29_149
*862 FILLER_0_29_15
*863 FILLER_0_29_161
*864 FILLER_0_29_167
*865 FILLER_0_29_169
*866 FILLER_0_29_181
*867 FILLER_0_29_193
*868 FILLER_0_29_205
*869 FILLER_0_29_217
*870 FILLER_0_29_223
*871 FILLER_0_29_225
*872 FILLER_0_29_237
*873 FILLER_0_29_249
*874 FILLER_0_29_261
*875 FILLER_0_29_27
*876 FILLER_0_29_273
*877 FILLER_0_29_279
*878 FILLER_0_29_281
*879 FILLER_0_29_293
*880 FILLER_0_29_3
*881 FILLER_0_29_305
*882 FILLER_0_29_317
*883 FILLER_0_29_329
*884 FILLER_0_29_39
*885 FILLER_0_29_51
*886 FILLER_0_29_55
*887 FILLER_0_29_57
*888 FILLER_0_29_69
*889 FILLER_0_29_81
*890 FILLER_0_29_93
*891 FILLER_0_2_109
*892 FILLER_0_2_121
*893 FILLER_0_2_133
*894 FILLER_0_2_139
*895 FILLER_0_2_141
*896 FILLER_0_2_15
*897 FILLER_0_2_153
*898 FILLER_0_2_165
*899 FILLER_0_2_177
*900 FILLER_0_2_189
*901 FILLER_0_2_195
*902 FILLER_0_2_197
*903 FILLER_0_2_209
*904 FILLER_0_2_221
*905 FILLER_0_2_233
*906 FILLER_0_2_245
*907 FILLER_0_2_251
*908 FILLER_0_2_253
*909 FILLER_0_2_265
*910 FILLER_0_2_27
*911 FILLER_0_2_277
*912 FILLER_0_2_289
*913 FILLER_0_2_29
*914 FILLER_0_2_3
*915 FILLER_0_2_301
*916 FILLER_0_2_307
*917 FILLER_0_2_309
*918 FILLER_0_2_321
*919 FILLER_0_2_333
*920 FILLER_0_2_41
*921 FILLER_0_2_53
*922 FILLER_0_2_65
*923 FILLER_0_2_77
*924 FILLER_0_2_83
*925 FILLER_0_2_85
*926 FILLER_0_2_97
*927 FILLER_0_30_109
*928 FILLER_0_30_121
*929 FILLER_0_30_133
*930 FILLER_0_30_139
*931 FILLER_0_30_141
*932 FILLER_0_30_15
*933 FILLER_0_30_153
*934 FILLER_0_30_165
*935 FILLER_0_30_177
*936 FILLER_0_30_189
*937 FILLER_0_30_195
*938 FILLER_0_30_197
*939 FILLER_0_30_209
*940 FILLER_0_30_221
*941 FILLER_0_30_233
*942 FILLER_0_30_245
*943 FILLER_0_30_251
*944 FILLER_0_30_253
*945 FILLER_0_30_265
*946 FILLER_0_30_27
*947 FILLER_0_30_277
*948 FILLER_0_30_289
*949 FILLER_0_30_29
*950 FILLER_0_30_3
*951 FILLER_0_30_301
*952 FILLER_0_30_307
*953 FILLER_0_30_309
*954 FILLER_0_30_321
*955 FILLER_0_30_333
*956 FILLER_0_30_41
*957 FILLER_0_30_53
*958 FILLER_0_30_65
*959 FILLER_0_30_77
*960 FILLER_0_30_83
*961 FILLER_0_30_85
*962 FILLER_0_30_97
*963 FILLER_0_31_105
*964 FILLER_0_31_111
*965 FILLER_0_31_113
*966 FILLER_0_31_125
*967 FILLER_0_31_137
*968 FILLER_0_31_149
*969 FILLER_0_31_15
*970 FILLER_0_31_161
*971 FILLER_0_31_167
*972 FILLER_0_31_169
*973 FILLER_0_31_181
*974 FILLER_0_31_193
*975 FILLER_0_31_205
*976 FILLER_0_31_217
*977 FILLER_0_31_223
*978 FILLER_0_31_225
*979 FILLER_0_31_237
*980 FILLER_0_31_249
*981 FILLER_0_31_261
*982 FILLER_0_31_27
*983 FILLER_0_31_273
*984 FILLER_0_31_279
*985 FILLER_0_31_281
*986 FILLER_0_31_293
*987 FILLER_0_31_3
*988 FILLER_0_31_305
*989 FILLER_0_31_317
*990 FILLER_0_31_329
*991 FILLER_0_31_39
*992 FILLER_0_31_51
*993 FILLER_0_31_55
*994 FILLER_0_31_57
*995 FILLER_0_31_69
*996 FILLER_0_31_81
*997 FILLER_0_31_93
*998 FILLER_0_32_109
*999 FILLER_0_32_121
*1000 FILLER_0_32_133
*1001 FILLER_0_32_139
*1002 FILLER_0_32_141
*1003 FILLER_0_32_15
*1004 FILLER_0_32_153
*1005 FILLER_0_32_165
*1006 FILLER_0_32_177
*1007 FILLER_0_32_189
*1008 FILLER_0_32_195
*1009 FILLER_0_32_197
*1010 FILLER_0_32_209
*1011 FILLER_0_32_221
*1012 FILLER_0_32_233
*1013 FILLER_0_32_245
*1014 FILLER_0_32_251
*1015 FILLER_0_32_253
*1016 FILLER_0_32_265
*1017 FILLER_0_32_27
*1018 FILLER_0_32_277
*1019 FILLER_0_32_289
*1020 FILLER_0_32_29
*1021 FILLER_0_32_3
*1022 FILLER_0_32_301
*1023 FILLER_0_32_307
*1024 FILLER_0_32_309
*1025 FILLER_0_32_321
*1026 FILLER_0_32_333
*1027 FILLER_0_32_41
*1028 FILLER_0_32_53
*1029 FILLER_0_32_65
*1030 FILLER_0_32_77
*1031 FILLER_0_32_83
*1032 FILLER_0_32_85
*1033 FILLER_0_32_97
*1034 FILLER_0_33_105
*1035 FILLER_0_33_111
*1036 FILLER_0_33_113
*1037 FILLER_0_33_125
*1038 FILLER_0_33_137
*1039 FILLER_0_33_141
*1040 FILLER_0_33_146
*1041 FILLER_0_33_15
*1042 FILLER_0_33_158
*1043 FILLER_0_33_166
*1044 FILLER_0_33_169
*1045 FILLER_0_33_181
*1046 FILLER_0_33_193
*1047 FILLER_0_33_201
*1048 FILLER_0_33_209
*1049 FILLER_0_33_217
*1050 FILLER_0_33_222
*1051 FILLER_0_33_228
*1052 FILLER_0_33_240
*1053 FILLER_0_33_252
*1054 FILLER_0_33_27
*1055 FILLER_0_33_270
*1056 FILLER_0_33_278
*1057 FILLER_0_33_281
*1058 FILLER_0_33_293
*1059 FILLER_0_33_3
*1060 FILLER_0_33_305
*1061 FILLER_0_33_317
*1062 FILLER_0_33_329
*1063 FILLER_0_33_39
*1064 FILLER_0_33_51
*1065 FILLER_0_33_55
*1066 FILLER_0_33_57
*1067 FILLER_0_33_69
*1068 FILLER_0_33_81
*1069 FILLER_0_33_93
*1070 FILLER_0_34_109
*1071 FILLER_0_34_121
*1072 FILLER_0_34_133
*1073 FILLER_0_34_139
*1074 FILLER_0_34_141
*1075 FILLER_0_34_15
*1076 FILLER_0_34_153
*1077 FILLER_0_34_170
*1078 FILLER_0_34_182
*1079 FILLER_0_34_192
*1080 FILLER_0_34_214
*1081 FILLER_0_34_250
*1082 FILLER_0_34_258
*1083 FILLER_0_34_27
*1084 FILLER_0_34_277
*1085 FILLER_0_34_289
*1086 FILLER_0_34_29
*1087 FILLER_0_34_3
*1088 FILLER_0_34_301
*1089 FILLER_0_34_307
*1090 FILLER_0_34_309
*1091 FILLER_0_34_321
*1092 FILLER_0_34_333
*1093 FILLER_0_34_41
*1094 FILLER_0_34_53
*1095 FILLER_0_34_65
*1096 FILLER_0_34_77
*1097 FILLER_0_34_83
*1098 FILLER_0_34_85
*1099 FILLER_0_34_97
*1100 FILLER_0_35_105
*1101 FILLER_0_35_111
*1102 FILLER_0_35_113
*1103 FILLER_0_35_125
*1104 FILLER_0_35_137
*1105 FILLER_0_35_141
*1106 FILLER_0_35_145
*1107 FILLER_0_35_15
*1108 FILLER_0_35_157
*1109 FILLER_0_35_165
*1110 FILLER_0_35_169
*1111 FILLER_0_35_177
*1112 FILLER_0_35_185
*1113 FILLER_0_35_197
*1114 FILLER_0_35_203
*1115 FILLER_0_35_215
*1116 FILLER_0_35_219
*1117 FILLER_0_35_223
*1118 FILLER_0_35_230
*1119 FILLER_0_35_238
*1120 FILLER_0_35_242
*1121 FILLER_0_35_252
*1122 FILLER_0_35_264
*1123 FILLER_0_35_27
*1124 FILLER_0_35_276
*1125 FILLER_0_35_281
*1126 FILLER_0_35_293
*1127 FILLER_0_35_3
*1128 FILLER_0_35_305
*1129 FILLER_0_35_317
*1130 FILLER_0_35_329
*1131 FILLER_0_35_39
*1132 FILLER_0_35_51
*1133 FILLER_0_35_55
*1134 FILLER_0_35_57
*1135 FILLER_0_35_69
*1136 FILLER_0_35_81
*1137 FILLER_0_35_93
*1138 FILLER_0_36_109
*1139 FILLER_0_36_121
*1140 FILLER_0_36_133
*1141 FILLER_0_36_139
*1142 FILLER_0_36_15
*1143 FILLER_0_36_154
*1144 FILLER_0_36_162
*1145 FILLER_0_36_175
*1146 FILLER_0_36_189
*1147 FILLER_0_36_197
*1148 FILLER_0_36_214
*1149 FILLER_0_36_222
*1150 FILLER_0_36_237
*1151 FILLER_0_36_241
*1152 FILLER_0_36_250
*1153 FILLER_0_36_253
*1154 FILLER_0_36_261
*1155 FILLER_0_36_27
*1156 FILLER_0_36_276
*1157 FILLER_0_36_288
*1158 FILLER_0_36_29
*1159 FILLER_0_36_3
*1160 FILLER_0_36_300
*1161 FILLER_0_36_309
*1162 FILLER_0_36_321
*1163 FILLER_0_36_333
*1164 FILLER_0_36_41
*1165 FILLER_0_36_53
*1166 FILLER_0_36_65
*1167 FILLER_0_36_77
*1168 FILLER_0_36_83
*1169 FILLER_0_36_85
*1170 FILLER_0_36_97
*1171 FILLER_0_37_105
*1172 FILLER_0_37_111
*1173 FILLER_0_37_113
*1174 FILLER_0_37_125
*1175 FILLER_0_37_137
*1176 FILLER_0_37_141
*1177 FILLER_0_37_148
*1178 FILLER_0_37_15
*1179 FILLER_0_37_163
*1180 FILLER_0_37_167
*1181 FILLER_0_37_169
*1182 FILLER_0_37_181
*1183 FILLER_0_37_193
*1184 FILLER_0_37_205
*1185 FILLER_0_37_216
*1186 FILLER_0_37_225
*1187 FILLER_0_37_237
*1188 FILLER_0_37_249
*1189 FILLER_0_37_256
*1190 FILLER_0_37_27
*1191 FILLER_0_37_273
*1192 FILLER_0_37_279
*1193 FILLER_0_37_281
*1194 FILLER_0_37_293
*1195 FILLER_0_37_3
*1196 FILLER_0_37_305
*1197 FILLER_0_37_317
*1198 FILLER_0_37_329
*1199 FILLER_0_37_39
*1200 FILLER_0_37_51
*1201 FILLER_0_37_55
*1202 FILLER_0_37_57
*1203 FILLER_0_37_69
*1204 FILLER_0_37_81
*1205 FILLER_0_37_93
*1206 FILLER_0_38_10
*1207 FILLER_0_38_102
*1208 FILLER_0_38_106
*1209 FILLER_0_38_110
*1210 FILLER_0_38_113
*1211 FILLER_0_38_118
*1212 FILLER_0_38_122
*1213 FILLER_0_38_126
*1214 FILLER_0_38_134
*1215 FILLER_0_38_14
*1216 FILLER_0_38_152
*1217 FILLER_0_38_156
*1218 FILLER_0_38_163
*1219 FILLER_0_38_169
*1220 FILLER_0_38_18
*1221 FILLER_0_38_189
*1222 FILLER_0_38_201
*1223 FILLER_0_38_209
*1224 FILLER_0_38_22
*1225 FILLER_0_38_222
*1226 FILLER_0_38_238
*1227 FILLER_0_38_242
*1228 FILLER_0_38_251
*1229 FILLER_0_38_260
*1230 FILLER_0_38_269
*1231 FILLER_0_38_277
*1232 FILLER_0_38_289
*1233 FILLER_0_38_295
*1234 FILLER_0_38_303
*1235 FILLER_0_38_309
*1236 FILLER_0_38_32
*1237 FILLER_0_38_322
*1238 FILLER_0_38_334
*1239 FILLER_0_38_38
*1240 FILLER_0_38_42
*1241 FILLER_0_38_46
*1242 FILLER_0_38_50
*1243 FILLER_0_38_54
*1244 FILLER_0_38_57
*1245 FILLER_0_38_6
*1246 FILLER_0_38_62
*1247 FILLER_0_38_66
*1248 FILLER_0_38_70
*1249 FILLER_0_38_74
*1250 FILLER_0_38_78
*1251 FILLER_0_38_88
*1252 FILLER_0_38_94
*1253 FILLER_0_38_98
*1254 FILLER_0_3_105
*1255 FILLER_0_3_111
*1256 FILLER_0_3_113
*1257 FILLER_0_3_125
*1258 FILLER_0_3_137
*1259 FILLER_0_3_149
*1260 FILLER_0_3_15
*1261 FILLER_0_3_161
*1262 FILLER_0_3_167
*1263 FILLER_0_3_169
*1264 FILLER_0_3_181
*1265 FILLER_0_3_193
*1266 FILLER_0_3_205
*1267 FILLER_0_3_217
*1268 FILLER_0_3_223
*1269 FILLER_0_3_225
*1270 FILLER_0_3_237
*1271 FILLER_0_3_249
*1272 FILLER_0_3_261
*1273 FILLER_0_3_27
*1274 FILLER_0_3_273
*1275 FILLER_0_3_279
*1276 FILLER_0_3_281
*1277 FILLER_0_3_293
*1278 FILLER_0_3_3
*1279 FILLER_0_3_305
*1280 FILLER_0_3_317
*1281 FILLER_0_3_329
*1282 FILLER_0_3_39
*1283 FILLER_0_3_51
*1284 FILLER_0_3_55
*1285 FILLER_0_3_57
*1286 FILLER_0_3_69
*1287 FILLER_0_3_81
*1288 FILLER_0_3_93
*1289 FILLER_0_4_109
*1290 FILLER_0_4_121
*1291 FILLER_0_4_133
*1292 FILLER_0_4_139
*1293 FILLER_0_4_141
*1294 FILLER_0_4_15
*1295 FILLER_0_4_153
*1296 FILLER_0_4_165
*1297 FILLER_0_4_177
*1298 FILLER_0_4_189
*1299 FILLER_0_4_195
*1300 FILLER_0_4_197
*1301 FILLER_0_4_209
*1302 FILLER_0_4_221
*1303 FILLER_0_4_233
*1304 FILLER_0_4_245
*1305 FILLER_0_4_251
*1306 FILLER_0_4_253
*1307 FILLER_0_4_265
*1308 FILLER_0_4_27
*1309 FILLER_0_4_277
*1310 FILLER_0_4_289
*1311 FILLER_0_4_29
*1312 FILLER_0_4_3
*1313 FILLER_0_4_301
*1314 FILLER_0_4_307
*1315 FILLER_0_4_309
*1316 FILLER_0_4_321
*1317 FILLER_0_4_333
*1318 FILLER_0_4_41
*1319 FILLER_0_4_53
*1320 FILLER_0_4_65
*1321 FILLER_0_4_77
*1322 FILLER_0_4_83
*1323 FILLER_0_4_85
*1324 FILLER_0_4_97
*1325 FILLER_0_5_105
*1326 FILLER_0_5_111
*1327 FILLER_0_5_113
*1328 FILLER_0_5_125
*1329 FILLER_0_5_137
*1330 FILLER_0_5_149
*1331 FILLER_0_5_15
*1332 FILLER_0_5_161
*1333 FILLER_0_5_167
*1334 FILLER_0_5_169
*1335 FILLER_0_5_181
*1336 FILLER_0_5_193
*1337 FILLER_0_5_205
*1338 FILLER_0_5_217
*1339 FILLER_0_5_223
*1340 FILLER_0_5_225
*1341 FILLER_0_5_237
*1342 FILLER_0_5_249
*1343 FILLER_0_5_261
*1344 FILLER_0_5_27
*1345 FILLER_0_5_273
*1346 FILLER_0_5_279
*1347 FILLER_0_5_281
*1348 FILLER_0_5_293
*1349 FILLER_0_5_3
*1350 FILLER_0_5_305
*1351 FILLER_0_5_317
*1352 FILLER_0_5_329
*1353 FILLER_0_5_39
*1354 FILLER_0_5_51
*1355 FILLER_0_5_55
*1356 FILLER_0_5_57
*1357 FILLER_0_5_69
*1358 FILLER_0_5_81
*1359 FILLER_0_5_93
*1360 FILLER_0_6_109
*1361 FILLER_0_6_121
*1362 FILLER_0_6_133
*1363 FILLER_0_6_139
*1364 FILLER_0_6_141
*1365 FILLER_0_6_15
*1366 FILLER_0_6_153
*1367 FILLER_0_6_165
*1368 FILLER_0_6_177
*1369 FILLER_0_6_189
*1370 FILLER_0_6_195
*1371 FILLER_0_6_197
*1372 FILLER_0_6_209
*1373 FILLER_0_6_221
*1374 FILLER_0_6_233
*1375 FILLER_0_6_245
*1376 FILLER_0_6_251
*1377 FILLER_0_6_253
*1378 FILLER_0_6_265
*1379 FILLER_0_6_27
*1380 FILLER_0_6_277
*1381 FILLER_0_6_289
*1382 FILLER_0_6_29
*1383 FILLER_0_6_3
*1384 FILLER_0_6_301
*1385 FILLER_0_6_307
*1386 FILLER_0_6_309
*1387 FILLER_0_6_321
*1388 FILLER_0_6_333
*1389 FILLER_0_6_41
*1390 FILLER_0_6_53
*1391 FILLER_0_6_65
*1392 FILLER_0_6_77
*1393 FILLER_0_6_83
*1394 FILLER_0_6_85
*1395 FILLER_0_6_97
*1396 FILLER_0_7_105
*1397 FILLER_0_7_111
*1398 FILLER_0_7_113
*1399 FILLER_0_7_125
*1400 FILLER_0_7_137
*1401 FILLER_0_7_149
*1402 FILLER_0_7_15
*1403 FILLER_0_7_161
*1404 FILLER_0_7_167
*1405 FILLER_0_7_169
*1406 FILLER_0_7_181
*1407 FILLER_0_7_193
*1408 FILLER_0_7_205
*1409 FILLER_0_7_217
*1410 FILLER_0_7_223
*1411 FILLER_0_7_225
*1412 FILLER_0_7_237
*1413 FILLER_0_7_249
*1414 FILLER_0_7_261
*1415 FILLER_0_7_27
*1416 FILLER_0_7_273
*1417 FILLER_0_7_279
*1418 FILLER_0_7_281
*1419 FILLER_0_7_293
*1420 FILLER_0_7_3
*1421 FILLER_0_7_305
*1422 FILLER_0_7_317
*1423 FILLER_0_7_329
*1424 FILLER_0_7_39
*1425 FILLER_0_7_51
*1426 FILLER_0_7_55
*1427 FILLER_0_7_57
*1428 FILLER_0_7_69
*1429 FILLER_0_7_81
*1430 FILLER_0_7_93
*1431 FILLER_0_8_109
*1432 FILLER_0_8_121
*1433 FILLER_0_8_133
*1434 FILLER_0_8_139
*1435 FILLER_0_8_141
*1436 FILLER_0_8_15
*1437 FILLER_0_8_153
*1438 FILLER_0_8_165
*1439 FILLER_0_8_177
*1440 FILLER_0_8_189
*1441 FILLER_0_8_195
*1442 FILLER_0_8_197
*1443 FILLER_0_8_209
*1444 FILLER_0_8_221
*1445 FILLER_0_8_233
*1446 FILLER_0_8_245
*1447 FILLER_0_8_251
*1448 FILLER_0_8_253
*1449 FILLER_0_8_265
*1450 FILLER_0_8_27
*1451 FILLER_0_8_277
*1452 FILLER_0_8_289
*1453 FILLER_0_8_29
*1454 FILLER_0_8_3
*1455 FILLER_0_8_301
*1456 FILLER_0_8_307
*1457 FILLER_0_8_309
*1458 FILLER_0_8_321
*1459 FILLER_0_8_333
*1460 FILLER_0_8_41
*1461 FILLER_0_8_53
*1462 FILLER_0_8_65
*1463 FILLER_0_8_77
*1464 FILLER_0_8_83
*1465 FILLER_0_8_85
*1466 FILLER_0_8_97
*1467 FILLER_0_9_105
*1468 FILLER_0_9_111
*1469 FILLER_0_9_113
*1470 FILLER_0_9_125
*1471 FILLER_0_9_137
*1472 FILLER_0_9_149
*1473 FILLER_0_9_15
*1474 FILLER_0_9_161
*1475 FILLER_0_9_167
*1476 FILLER_0_9_169
*1477 FILLER_0_9_181
*1478 FILLER_0_9_193
*1479 FILLER_0_9_205