*SPEF "ieee 1481-1999"
*DESIGN "tt_um_wallace_hhrb98"
*DATE "07:14:23 Thursday April 18, 2024"
*VENDOR "The OpenROAD Project"
*PROGRAM "OpenROAD"
*VERSION "0889970d1790a2617e69f253221b8bd7626e51dc"
*DESIGN_FLOW "NAME_SCOPE LOCAL" "PIN_CAP NONE"
*DIVIDER /
*DELIMITER :
*BUS_DELIMITER []
*T_UNIT 1 NS
*C_UNIT 1 PF
*R_UNIT 1 OHM
*L_UNIT 1 HENRY

*NAME_MAP
*3 clk
*4 ena
*5 rst_n
*6 ui_in[0]
*7 ui_in[1]
*8 ui_in[2]
*9 ui_in[3]
*10 ui_in[4]
*11 ui_in[5]
*12 ui_in[6]
*13 ui_in[7]
*14 uio_in[0]
*15 uio_in[1]
*16 uio_in[2]
*17 uio_in[3]
*18 uio_in[4]
*19 uio_in[5]
*20 uio_in[6]
*21 uio_in[7]
*22 net9
*23 net10
*24 net11
*25 net12
*26 net13
*27 net14
*28 net15
*29 net16
*30 net17
*31 net18
*32 net19
*33 net20
*34 net21
*35 net22
*36 net23
*37 net24
*38 uo_out[0]
*39 uo_out[1]
*40 uo_out[2]
*41 uo_out[3]
*42 uo_out[4]
*43 uo_out[5]
*44 uo_out[6]
*45 uo_out[7]
*46 _000_
*47 _001_
*48 _002_
*49 _003_
*50 _004_
*51 _005_
*52 _006_
*53 _007_
*54 _008_
*55 _009_
*56 _010_
*57 _011_
*58 _012_
*59 _013_
*60 _014_
*61 _015_
*62 _016_
*63 _017_
*64 _018_
*65 _019_
*66 _020_
*67 _021_
*68 _022_
*69 _023_
*70 _024_
*71 _025_
*72 _026_
*73 _027_
*74 _028_
*75 _029_
*76 _030_
*77 _031_
*78 _032_
*79 _033_
*80 _034_
*81 _035_
*82 _036_
*83 _037_
*84 _038_
*85 _039_
*86 _040_
*87 _041_
*88 _042_
*89 _043_
*90 _044_
*91 _045_
*92 _046_
*93 _047_
*94 _048_
*95 _049_
*96 ha11\.Data_out_Sum
*97 ha22\.Data_out_Sum
*98 ha32\.Data_out_Sum
*99 ha34\.Data_out_Sum
*100 ha35\.Data_out_Sum
*101 ha36\.Data_out_Sum
*102 ha37\.Data_out_Sum
*103 net1
*104 net2
*105 net3
*106 net4
*107 net5
*108 net6
*109 net7
*110 net8
*111 FILLER_0_0_109
*112 FILLER_0_0_113
*113 FILLER_0_0_125
*114 FILLER_0_0_137
*115 FILLER_0_0_141
*116 FILLER_0_0_15
*117 FILLER_0_0_153
*118 FILLER_0_0_165
*119 FILLER_0_0_169
*120 FILLER_0_0_181
*121 FILLER_0_0_193
*122 FILLER_0_0_197
*123 FILLER_0_0_209
*124 FILLER_0_0_221
*125 FILLER_0_0_225
*126 FILLER_0_0_237
*127 FILLER_0_0_249
*128 FILLER_0_0_253
*129 FILLER_0_0_265
*130 FILLER_0_0_27
*131 FILLER_0_0_277
*132 FILLER_0_0_281
*133 FILLER_0_0_29
*134 FILLER_0_0_293
*135 FILLER_0_0_3
*136 FILLER_0_0_305
*137 FILLER_0_0_309
*138 FILLER_0_0_321
*139 FILLER_0_0_333
*140 FILLER_0_0_41
*141 FILLER_0_0_53
*142 FILLER_0_0_57
*143 FILLER_0_0_69
*144 FILLER_0_0_81
*145 FILLER_0_0_85
*146 FILLER_0_0_97
*147 FILLER_0_10_109
*148 FILLER_0_10_121
*149 FILLER_0_10_133
*150 FILLER_0_10_139
*151 FILLER_0_10_141
*152 FILLER_0_10_15
*153 FILLER_0_10_153
*154 FILLER_0_10_165
*155 FILLER_0_10_177
*156 FILLER_0_10_189
*157 FILLER_0_10_195
*158 FILLER_0_10_197
*159 FILLER_0_10_209
*160 FILLER_0_10_221
*161 FILLER_0_10_233
*162 FILLER_0_10_245
*163 FILLER_0_10_251
*164 FILLER_0_10_253
*165 FILLER_0_10_265
*166 FILLER_0_10_27
*167 FILLER_0_10_277
*168 FILLER_0_10_289
*169 FILLER_0_10_29
*170 FILLER_0_10_3
*171 FILLER_0_10_301
*172 FILLER_0_10_307
*173 FILLER_0_10_309
*174 FILLER_0_10_321
*175 FILLER_0_10_333
*176 FILLER_0_10_41
*177 FILLER_0_10_53
*178 FILLER_0_10_65
*179 FILLER_0_10_77
*180 FILLER_0_10_83
*181 FILLER_0_10_85
*182 FILLER_0_10_97
*183 FILLER_0_11_105
*184 FILLER_0_11_111
*185 FILLER_0_11_113
*186 FILLER_0_11_125
*187 FILLER_0_11_137
*188 FILLER_0_11_149
*189 FILLER_0_11_15
*190 FILLER_0_11_161
*191 FILLER_0_11_167
*192 FILLER_0_11_169
*193 FILLER_0_11_181
*194 FILLER_0_11_193
*195 FILLER_0_11_205
*196 FILLER_0_11_217
*197 FILLER_0_11_223
*198 FILLER_0_11_225
*199 FILLER_0_11_237
*200 FILLER_0_11_249
*201 FILLER_0_11_261
*202 FILLER_0_11_27
*203 FILLER_0_11_273
*204 FILLER_0_11_279
*205 FILLER_0_11_281
*206 FILLER_0_11_293
*207 FILLER_0_11_3
*208 FILLER_0_11_305
*209 FILLER_0_11_317
*210 FILLER_0_11_329
*211 FILLER_0_11_39
*212 FILLER_0_11_51
*213 FILLER_0_11_55
*214 FILLER_0_11_57
*215 FILLER_0_11_69
*216 FILLER_0_11_81
*217 FILLER_0_11_93
*218 FILLER_0_12_109
*219 FILLER_0_12_121
*220 FILLER_0_12_133
*221 FILLER_0_12_139
*222 FILLER_0_12_141
*223 FILLER_0_12_15
*224 FILLER_0_12_153
*225 FILLER_0_12_165
*226 FILLER_0_12_177
*227 FILLER_0_12_189
*228 FILLER_0_12_195
*229 FILLER_0_12_197
*230 FILLER_0_12_209
*231 FILLER_0_12_221
*232 FILLER_0_12_233
*233 FILLER_0_12_245
*234 FILLER_0_12_251
*235 FILLER_0_12_253
*236 FILLER_0_12_265
*237 FILLER_0_12_27
*238 FILLER_0_12_277
*239 FILLER_0_12_289
*240 FILLER_0_12_29
*241 FILLER_0_12_3
*242 FILLER_0_12_301
*243 FILLER_0_12_307
*244 FILLER_0_12_309
*245 FILLER_0_12_321
*246 FILLER_0_12_333
*247 FILLER_0_12_41
*248 FILLER_0_12_53
*249 FILLER_0_12_65
*250 FILLER_0_12_77
*251 FILLER_0_12_83
*252 FILLER_0_12_85
*253 FILLER_0_12_97
*254 FILLER_0_13_105
*255 FILLER_0_13_111
*256 FILLER_0_13_113
*257 FILLER_0_13_125
*258 FILLER_0_13_137
*259 FILLER_0_13_149
*260 FILLER_0_13_15
*261 FILLER_0_13_161
*262 FILLER_0_13_167
*263 FILLER_0_13_169
*264 FILLER_0_13_181
*265 FILLER_0_13_193
*266 FILLER_0_13_205
*267 FILLER_0_13_217
*268 FILLER_0_13_223
*269 FILLER_0_13_225
*270 FILLER_0_13_237
*271 FILLER_0_13_249
*272 FILLER_0_13_261
*273 FILLER_0_13_27
*274 FILLER_0_13_273
*275 FILLER_0_13_279
*276 FILLER_0_13_281
*277 FILLER_0_13_293
*278 FILLER_0_13_3
*279 FILLER_0_13_305
*280 FILLER_0_13_317
*281 FILLER_0_13_329
*282 FILLER_0_13_39
*283 FILLER_0_13_51
*284 FILLER_0_13_55
*285 FILLER_0_13_57
*286 FILLER_0_13_69
*287 FILLER_0_13_81
*288 FILLER_0_13_93
*289 FILLER_0_14_109
*290 FILLER_0_14_121
*291 FILLER_0_14_133
*292 FILLER_0_14_139
*293 FILLER_0_14_141
*294 FILLER_0_14_15
*295 FILLER_0_14_153
*296 FILLER_0_14_165
*297 FILLER_0_14_177
*298 FILLER_0_14_189
*299 FILLER_0_14_195
*300 FILLER_0_14_197
*301 FILLER_0_14_209
*302 FILLER_0_14_221
*303 FILLER_0_14_233
*304 FILLER_0_14_245
*305 FILLER_0_14_251
*306 FILLER_0_14_253
*307 FILLER_0_14_265
*308 FILLER_0_14_27
*309 FILLER_0_14_277
*310 FILLER_0_14_289
*311 FILLER_0_14_29
*312 FILLER_0_14_3
*313 FILLER_0_14_301
*314 FILLER_0_14_307
*315 FILLER_0_14_309
*316 FILLER_0_14_321
*317 FILLER_0_14_333
*318 FILLER_0_14_41
*319 FILLER_0_14_53
*320 FILLER_0_14_65
*321 FILLER_0_14_77
*322 FILLER_0_14_83
*323 FILLER_0_14_85
*324 FILLER_0_14_97
*325 FILLER_0_15_105
*326 FILLER_0_15_111
*327 FILLER_0_15_113
*328 FILLER_0_15_125
*329 FILLER_0_15_137
*330 FILLER_0_15_149
*331 FILLER_0_15_15
*332 FILLER_0_15_161
*333 FILLER_0_15_167
*334 FILLER_0_15_169
*335 FILLER_0_15_181
*336 FILLER_0_15_193
*337 FILLER_0_15_205
*338 FILLER_0_15_217
*339 FILLER_0_15_223
*340 FILLER_0_15_225
*341 FILLER_0_15_237
*342 FILLER_0_15_249
*343 FILLER_0_15_261
*344 FILLER_0_15_27
*345 FILLER_0_15_273
*346 FILLER_0_15_279
*347 FILLER_0_15_281
*348 FILLER_0_15_293
*349 FILLER_0_15_3
*350 FILLER_0_15_305
*351 FILLER_0_15_317
*352 FILLER_0_15_329
*353 FILLER_0_15_39
*354 FILLER_0_15_51
*355 FILLER_0_15_55
*356 FILLER_0_15_57
*357 FILLER_0_15_69
*358 FILLER_0_15_81
*359 FILLER_0_15_93
*360 FILLER_0_16_109
*361 FILLER_0_16_121
*362 FILLER_0_16_133
*363 FILLER_0_16_139
*364 FILLER_0_16_141
*365 FILLER_0_16_15
*366 FILLER_0_16_153
*367 FILLER_0_16_165
*368 FILLER_0_16_177
*369 FILLER_0_16_189
*370 FILLER_0_16_195
*371 FILLER_0_16_197
*372 FILLER_0_16_209
*373 FILLER_0_16_221
*374 FILLER_0_16_233
*375 FILLER_0_16_245
*376 FILLER_0_16_251
*377 FILLER_0_16_253
*378 FILLER_0_16_265
*379 FILLER_0_16_27
*380 FILLER_0_16_277
*381 FILLER_0_16_289
*382 FILLER_0_16_29
*383 FILLER_0_16_3
*384 FILLER_0_16_301
*385 FILLER_0_16_307
*386 FILLER_0_16_309
*387 FILLER_0_16_321
*388 FILLER_0_16_333
*389 FILLER_0_16_41
*390 FILLER_0_16_53
*391 FILLER_0_16_65
*392 FILLER_0_16_77
*393 FILLER_0_16_83
*394 FILLER_0_16_85
*395 FILLER_0_16_97
*396 FILLER_0_17_105
*397 FILLER_0_17_111
*398 FILLER_0_17_113
*399 FILLER_0_17_125
*400 FILLER_0_17_137
*401 FILLER_0_17_149
*402 FILLER_0_17_15
*403 FILLER_0_17_161
*404 FILLER_0_17_167
*405 FILLER_0_17_169
*406 FILLER_0_17_181
*407 FILLER_0_17_193
*408 FILLER_0_17_205
*409 FILLER_0_17_217
*410 FILLER_0_17_223
*411 FILLER_0_17_225
*412 FILLER_0_17_237
*413 FILLER_0_17_249
*414 FILLER_0_17_261
*415 FILLER_0_17_27
*416 FILLER_0_17_273
*417 FILLER_0_17_279
*418 FILLER_0_17_281
*419 FILLER_0_17_293
*420 FILLER_0_17_3
*421 FILLER_0_17_305
*422 FILLER_0_17_317
*423 FILLER_0_17_329
*424 FILLER_0_17_39
*425 FILLER_0_17_51
*426 FILLER_0_17_55
*427 FILLER_0_17_57
*428 FILLER_0_17_69
*429 FILLER_0_17_81
*430 FILLER_0_17_93
*431 FILLER_0_18_109
*432 FILLER_0_18_121
*433 FILLER_0_18_133
*434 FILLER_0_18_139
*435 FILLER_0_18_141
*436 FILLER_0_18_15
*437 FILLER_0_18_153
*438 FILLER_0_18_165
*439 FILLER_0_18_177
*440 FILLER_0_18_189
*441 FILLER_0_18_195
*442 FILLER_0_18_197
*443 FILLER_0_18_209
*444 FILLER_0_18_221
*445 FILLER_0_18_233
*446 FILLER_0_18_245
*447 FILLER_0_18_251
*448 FILLER_0_18_253
*449 FILLER_0_18_265
*450 FILLER_0_18_27
*451 FILLER_0_18_277
*452 FILLER_0_18_289
*453 FILLER_0_18_29
*454 FILLER_0_18_3
*455 FILLER_0_18_301
*456 FILLER_0_18_307
*457 FILLER_0_18_309
*458 FILLER_0_18_321
*459 FILLER_0_18_333
*460 FILLER_0_18_41
*461 FILLER_0_18_53
*462 FILLER_0_18_65
*463 FILLER_0_18_77
*464 FILLER_0_18_83
*465 FILLER_0_18_85
*466 FILLER_0_18_97
*467 FILLER_0_19_105
*468 FILLER_0_19_111
*469 FILLER_0_19_113
*470 FILLER_0_19_125
*471 FILLER_0_19_137
*472 FILLER_0_19_149
*473 FILLER_0_19_15
*474 FILLER_0_19_161
*475 FILLER_0_19_167
*476 FILLER_0_19_169
*477 FILLER_0_19_181
*478 FILLER_0_19_193
*479 FILLER_0_19_205
*480 FILLER_0_19_217
*481 FILLER_0_19_223
*482 FILLER_0_19_225
*483 FILLER_0_19_237
*484 FILLER_0_19_249
*485 FILLER_0_19_261
*486 FILLER_0_19_27
*487 FILLER_0_19_273
*488 FILLER_0_19_279
*489 FILLER_0_19_281
*490 FILLER_0_19_293
*491 FILLER_0_19_3
*492 FILLER_0_19_305
*493 FILLER_0_19_317
*494 FILLER_0_19_329
*495 FILLER_0_19_39
*496 FILLER_0_19_51
*497 FILLER_0_19_55
*498 FILLER_0_19_57
*499 FILLER_0_19_69
*500 FILLER_0_19_81
*501 FILLER_0_19_93
*502 FILLER_0_1_105
*503 FILLER_0_1_111
*504 FILLER_0_1_113
*505 FILLER_0_1_125
*506 FILLER_0_1_137
*507 FILLER_0_1_149
*508 FILLER_0_1_15
*509 FILLER_0_1_161
*510 FILLER_0_1_167
*511 FILLER_0_1_169
*512 FILLER_0_1_181
*513 FILLER_0_1_193
*514 FILLER_0_1_205
*515 FILLER_0_1_217
*516 FILLER_0_1_223
*517 FILLER_0_1_225
*518 FILLER_0_1_237
*519 FILLER_0_1_249
*520 FILLER_0_1_261
*521 FILLER_0_1_27
*522 FILLER_0_1_273
*523 FILLER_0_1_279
*524 FILLER_0_1_281
*525 FILLER_0_1_293
*526 FILLER_0_1_3
*527 FILLER_0_1_305
*528 FILLER_0_1_317
*529 FILLER_0_1_329
*530 FILLER_0_1_39
*531 FILLER_0_1_51
*532 FILLER_0_1_55
*533 FILLER_0_1_57
*534 FILLER_0_1_69
*535 FILLER_0_1_81
*536 FILLER_0_1_93
*537 FILLER_0_20_109
*538 FILLER_0_20_121
*539 FILLER_0_20_133
*540 FILLER_0_20_139
*541 FILLER_0_20_141
*542 FILLER_0_20_15
*543 FILLER_0_20_153
*544 FILLER_0_20_165
*545 FILLER_0_20_177
*546 FILLER_0_20_189
*547 FILLER_0_20_195
*548 FILLER_0_20_197
*549 FILLER_0_20_209
*550 FILLER_0_20_221
*551 FILLER_0_20_233
*552 FILLER_0_20_245
*553 FILLER_0_20_251
*554 FILLER_0_20_253
*555 FILLER_0_20_265
*556 FILLER_0_20_27
*557 FILLER_0_20_277
*558 FILLER_0_20_289
*559 FILLER_0_20_29
*560 FILLER_0_20_3
*561 FILLER_0_20_301
*562 FILLER_0_20_307
*563 FILLER_0_20_309
*564 FILLER_0_20_321
*565 FILLER_0_20_333
*566 FILLER_0_20_41
*567 FILLER_0_20_53
*568 FILLER_0_20_65
*569 FILLER_0_20_77
*570 FILLER_0_20_83
*571 FILLER_0_20_85
*572 FILLER_0_20_97
*573 FILLER_0_21_105
*574 FILLER_0_21_111
*575 FILLER_0_21_113
*576 FILLER_0_21_125
*577 FILLER_0_21_137
*578 FILLER_0_21_149
*579 FILLER_0_21_15
*580 FILLER_0_21_161
*581 FILLER_0_21_167
*582 FILLER_0_21_169
*583 FILLER_0_21_181
*584 FILLER_0_21_193
*585 FILLER_0_21_205
*586 FILLER_0_21_217
*587 FILLER_0_21_223
*588 FILLER_0_21_225
*589 FILLER_0_21_237
*590 FILLER_0_21_249
*591 FILLER_0_21_261
*592 FILLER_0_21_27
*593 FILLER_0_21_273
*594 FILLER_0_21_279
*595 FILLER_0_21_281
*596 FILLER_0_21_293
*597 FILLER_0_21_3
*598 FILLER_0_21_305
*599 FILLER_0_21_317
*600 FILLER_0_21_329
*601 FILLER_0_21_39
*602 FILLER_0_21_51
*603 FILLER_0_21_55
*604 FILLER_0_21_57
*605 FILLER_0_21_69
*606 FILLER_0_21_81
*607 FILLER_0_21_93
*608 FILLER_0_22_109
*609 FILLER_0_22_121
*610 FILLER_0_22_133
*611 FILLER_0_22_139
*612 FILLER_0_22_141
*613 FILLER_0_22_15
*614 FILLER_0_22_153
*615 FILLER_0_22_165
*616 FILLER_0_22_177
*617 FILLER_0_22_189
*618 FILLER_0_22_195
*619 FILLER_0_22_197
*620 FILLER_0_22_209
*621 FILLER_0_22_221
*622 FILLER_0_22_233
*623 FILLER_0_22_245
*624 FILLER_0_22_251
*625 FILLER_0_22_253
*626 FILLER_0_22_265
*627 FILLER_0_22_27
*628 FILLER_0_22_277
*629 FILLER_0_22_289
*630 FILLER_0_22_29
*631 FILLER_0_22_3
*632 FILLER_0_22_301
*633 FILLER_0_22_307
*634 FILLER_0_22_309
*635 FILLER_0_22_321
*636 FILLER_0_22_333
*637 FILLER_0_22_41
*638 FILLER_0_22_53
*639 FILLER_0_22_65
*640 FILLER_0_22_77
*641 FILLER_0_22_83
*642 FILLER_0_22_85
*643 FILLER_0_22_97
*644 FILLER_0_23_105
*645 FILLER_0_23_111
*646 FILLER_0_23_113
*647 FILLER_0_23_125
*648 FILLER_0_23_137
*649 FILLER_0_23_149
*650 FILLER_0_23_15
*651 FILLER_0_23_161
*652 FILLER_0_23_167
*653 FILLER_0_23_169
*654 FILLER_0_23_181
*655 FILLER_0_23_193
*656 FILLER_0_23_205
*657 FILLER_0_23_217
*658 FILLER_0_23_223
*659 FILLER_0_23_225
*660 FILLER_0_23_237
*661 FILLER_0_23_249
*662 FILLER_0_23_261
*663 FILLER_0_23_27
*664 FILLER_0_23_273
*665 FILLER_0_23_279
*666 FILLER_0_23_281
*667 FILLER_0_23_293
*668 FILLER_0_23_3
*669 FILLER_0_23_305
*670 FILLER_0_23_317
*671 FILLER_0_23_329
*672 FILLER_0_23_39
*673 FILLER_0_23_51
*674 FILLER_0_23_55
*675 FILLER_0_23_57
*676 FILLER_0_23_69
*677 FILLER_0_23_81
*678 FILLER_0_23_93
*679 FILLER_0_24_109
*680 FILLER_0_24_121
*681 FILLER_0_24_133
*682 FILLER_0_24_139
*683 FILLER_0_24_141
*684 FILLER_0_24_15
*685 FILLER_0_24_153
*686 FILLER_0_24_165
*687 FILLER_0_24_177
*688 FILLER_0_24_189
*689 FILLER_0_24_195
*690 FILLER_0_24_197
*691 FILLER_0_24_209
*692 FILLER_0_24_221
*693 FILLER_0_24_233
*694 FILLER_0_24_245
*695 FILLER_0_24_251
*696 FILLER_0_24_253
*697 FILLER_0_24_265
*698 FILLER_0_24_27
*699 FILLER_0_24_277
*700 FILLER_0_24_289
*701 FILLER_0_24_29
*702 FILLER_0_24_3
*703 FILLER_0_24_301
*704 FILLER_0_24_307
*705 FILLER_0_24_309
*706 FILLER_0_24_321
*707 FILLER_0_24_333
*708 FILLER_0_24_41
*709 FILLER_0_24_53
*710 FILLER_0_24_65
*711 FILLER_0_24_77
*712 FILLER_0_24_83
*713 FILLER_0_24_85
*714 FILLER_0_24_97
*715 FILLER_0_25_105
*716 FILLER_0_25_111
*717 FILLER_0_25_113
*718 FILLER_0_25_125
*719 FILLER_0_25_137
*720 FILLER_0_25_149
*721 FILLER_0_25_15
*722 FILLER_0_25_161
*723 FILLER_0_25_167
*724 FILLER_0_25_169
*725 FILLER_0_25_181
*726 FILLER_0_25_193
*727 FILLER_0_25_205
*728 FILLER_0_25_217
*729 FILLER_0_25_223
*730 FILLER_0_25_225
*731 FILLER_0_25_237
*732 FILLER_0_25_249
*733 FILLER_0_25_261
*734 FILLER_0_25_27
*735 FILLER_0_25_273
*736 FILLER_0_25_279
*737 FILLER_0_25_281
*738 FILLER_0_25_293
*739 FILLER_0_25_3
*740 FILLER_0_25_305
*741 FILLER_0_25_317
*742 FILLER_0_25_329
*743 FILLER_0_25_39
*744 FILLER_0_25_51
*745 FILLER_0_25_55
*746 FILLER_0_25_57
*747 FILLER_0_25_69
*748 FILLER_0_25_81
*749 FILLER_0_25_93
*750 FILLER_0_26_109
*751 FILLER_0_26_121
*752 FILLER_0_26_133
*753 FILLER_0_26_139
*754 FILLER_0_26_141
*755 FILLER_0_26_15
*756 FILLER_0_26_153
*757 FILLER_0_26_165
*758 FILLER_0_26_177
*759 FILLER_0_26_189
*760 FILLER_0_26_195
*761 FILLER_0_26_197
*762 FILLER_0_26_209
*763 FILLER_0_26_221
*764 FILLER_0_26_233
*765 FILLER_0_26_245
*766 FILLER_0_26_251
*767 FILLER_0_26_253
*768 FILLER_0_26_265
*769 FILLER_0_26_27
*770 FILLER_0_26_277
*771 FILLER_0_26_289
*772 FILLER_0_26_29
*773 FILLER_0_26_3
*774 FILLER_0_26_301
*775 FILLER_0_26_307
*776 FILLER_0_26_309
*777 FILLER_0_26_321
*778 FILLER_0_26_333
*779 FILLER_0_26_41
*780 FILLER_0_26_53
*781 FILLER_0_26_65
*782 FILLER_0_26_77
*783 FILLER_0_26_83
*784 FILLER_0_26_85
*785 FILLER_0_26_97
*786 FILLER_0_27_105
*787 FILLER_0_27_111
*788 FILLER_0_27_113
*789 FILLER_0_27_125
*790 FILLER_0_27_137
*791 FILLER_0_27_149
*792 FILLER_0_27_15
*793 FILLER_0_27_161
*794 FILLER_0_27_167
*795 FILLER_0_27_169
*796 FILLER_0_27_181
*797 FILLER_0_27_193
*798 FILLER_0_27_205
*799 FILLER_0_27_217
*800 FILLER_0_27_223
*801 FILLER_0_27_225
*802 FILLER_0_27_237
*803 FILLER_0_27_249
*804 FILLER_0_27_261
*805 FILLER_0_27_27
*806 FILLER_0_27_273
*807 FILLER_0_27_279
*808 FILLER_0_27_281
*809 FILLER_0_27_293
*810 FILLER_0_27_3
*811 FILLER_0_27_305
*812 FILLER_0_27_317
*813 FILLER_0_27_329
*814 FILLER_0_27_39
*815 FILLER_0_27_51
*816 FILLER_0_27_55
*817 FILLER_0_27_57
*818 FILLER_0_27_69
*819 FILLER_0_27_81
*820 FILLER_0_27_93
*821 FILLER_0_28_109
*822 FILLER_0_28_121
*823 FILLER_0_28_133
*824 FILLER_0_28_139
*825 FILLER_0_28_141
*826 FILLER_0_28_15
*827 FILLER_0_28_153
*828 FILLER_0_28_165
*829 FILLER_0_28_177
*830 FILLER_0_28_189
*831 FILLER_0_28_195
*832 FILLER_0_28_197
*833 FILLER_0_28_209
*834 FILLER_0_28_221
*835 FILLER_0_28_233
*836 FILLER_0_28_245
*837 FILLER_0_28_251
*838 FILLER_0_28_253
*839 FILLER_0_28_265
*840 FILLER_0_28_27
*841 FILLER_0_28_277
*842 FILLER_0_28_289
*843 FILLER_0_28_29
*844 FILLER_0_28_3
*845 FILLER_0_28_301
*846 FILLER_0_28_307
*847 FILLER_0_28_309
*848 FILLER_0_28_321
*849 FILLER_0_28_333
*850 FILLER_0_28_41
*851 FILLER_0_28_53
*852 FILLER_0_28_65
*853 FILLER_0_28_77
*854 FILLER_0_28_83
*855 FILLER_0_28_85
*856 FILLER_0_28_97
*857 FILLER_0_29_105
*858 FILLER_0_29_111
*859 FILLER_0_29_113
*860 FILLER_0_29_125
*861 FILLER_0_29_137
*862 FILLER_0_29_149
*863 FILLER_0_29_15
*864 FILLER_0_29_161
*865 FILLER_0_29_167
*866 FILLER_0_29_169
*867 FILLER_0_29_181
*868 FILLER_0_29_193
*869 FILLER_0_29_205
*870 FILLER_0_29_217
*871 FILLER_0_29_223
*872 FILLER_0_29_225
*873 FILLER_0_29_237
*874 FILLER_0_29_249
*875 FILLER_0_29_261
*876 FILLER_0_29_27
*877 FILLER_0_29_273
*878 FILLER_0_29_279
*879 FILLER_0_29_281
*880 FILLER_0_29_293
*881 FILLER_0_29_3
*882 FILLER_0_29_305
*883 FILLER_0_29_317
*884 FILLER_0_29_329
*885 FILLER_0_29_39
*886 FILLER_0_29_51
*887 FILLER_0_29_55
*888 FILLER_0_29_57
*889 FILLER_0_29_69
*890 FILLER_0_29_81
*891 FILLER_0_29_93
*892 FILLER_0_2_109
*893 FILLER_0_2_121
*894 FILLER_0_2_133
*895 FILLER_0_2_139
*896 FILLER_0_2_141
*897 FILLER_0_2_15
*898 FILLER_0_2_153
*899 FILLER_0_2_165
*900 FILLER_0_2_177
*901 FILLER_0_2_189
*902 FILLER_0_2_195
*903 FILLER_0_2_197
*904 FILLER_0_2_209
*905 FILLER_0_2_221
*906 FILLER_0_2_233
*907 FILLER_0_2_245
*908 FILLER_0_2_251
*909 FILLER_0_2_253
*910 FILLER_0_2_265
*911 FILLER_0_2_27
*912 FILLER_0_2_277
*913 FILLER_0_2_289
*914 FILLER_0_2_29
*915 FILLER_0_2_3
*916 FILLER_0_2_301
*917 FILLER_0_2_307
*918 FILLER_0_2_309
*919 FILLER_0_2_321
*920 FILLER_0_2_333
*921 FILLER_0_2_41
*922 FILLER_0_2_53
*923 FILLER_0_2_65
*924 FILLER_0_2_77
*925 FILLER_0_2_83
*926 FILLER_0_2_85
*927 FILLER_0_2_97
*928 FILLER_0_30_109
*929 FILLER_0_30_121
*930 FILLER_0_30_133
*931 FILLER_0_30_139
*932 FILLER_0_30_141
*933 FILLER_0_30_15
*934 FILLER_0_30_153
*935 FILLER_0_30_165
*936 FILLER_0_30_177
*937 FILLER_0_30_189
*938 FILLER_0_30_195
*939 FILLER_0_30_197
*940 FILLER_0_30_209
*941 FILLER_0_30_221
*942 FILLER_0_30_233
*943 FILLER_0_30_245
*944 FILLER_0_30_251
*945 FILLER_0_30_253
*946 FILLER_0_30_265
*947 FILLER_0_30_27
*948 FILLER_0_30_277
*949 FILLER_0_30_289
*950 FILLER_0_30_29
*951 FILLER_0_30_3
*952 FILLER_0_30_301
*953 FILLER_0_30_307
*954 FILLER_0_30_309
*955 FILLER_0_30_321
*956 FILLER_0_30_333
*957 FILLER_0_30_41
*958 FILLER_0_30_53
*959 FILLER_0_30_65
*960 FILLER_0_30_77
*961 FILLER_0_30_83
*962 FILLER_0_30_85
*963 FILLER_0_30_97
*964 FILLER_0_31_105
*965 FILLER_0_31_111
*966 FILLER_0_31_113
*967 FILLER_0_31_125
*968 FILLER_0_31_137
*969 FILLER_0_31_149
*970 FILLER_0_31_15
*971 FILLER_0_31_161
*972 FILLER_0_31_167
*973 FILLER_0_31_169
*974 FILLER_0_31_181
*975 FILLER_0_31_193
*976 FILLER_0_31_205
*977 FILLER_0_31_217
*978 FILLER_0_31_223
*979 FILLER_0_31_225
*980 FILLER_0_31_237
*981 FILLER_0_31_249
*982 FILLER_0_31_261
*983 FILLER_0_31_27
*984 FILLER_0_31_273
*985 FILLER_0_31_279
*986 FILLER_0_31_281
*987 FILLER_0_31_293
*988 FILLER_0_31_3
*989 FILLER_0_31_305
*990 FILLER_0_31_317
*991 FILLER_0_31_329
*992 FILLER_0_31_39
*993 FILLER_0_31_51
*994 FILLER_0_31_55
*995 FILLER_0_31_57
*996 FILLER_0_31_69
*997 FILLER_0_31_81
*998 FILLER_0_31_93
*999 FILLER_0_32_109
*1000 FILLER_0_32_121
*1001 FILLER_0_32_133
*1002 FILLER_0_32_139
*1003 FILLER_0_32_141
*1004 FILLER_0_32_15
*1005 FILLER_0_32_153
*1006 FILLER_0_32_165
*1007 FILLER_0_32_177
*1008 FILLER_0_32_189
*1009 FILLER_0_32_195
*1010 FILLER_0_32_197
*1011 FILLER_0_32_209
*1012 FILLER_0_32_221
*1013 FILLER_0_32_233
*1014 FILLER_0_32_245
*1015 FILLER_0_32_251
*1016 FILLER_0_32_253
*1017 FILLER_0_32_265
*1018 FILLER_0_32_27
*1019 FILLER_0_32_277
*1020 FILLER_0_32_289
*1021 FILLER_0_32_29
*1022 FILLER_0_32_3
*1023 FILLER_0_32_301
*1024 FILLER_0_32_307
*1025 FILLER_0_32_309
*1026 FILLER_0_32_321
*1027 FILLER_0_32_333
*1028 FILLER_0_32_41
*1029 FILLER_0_32_53
*1030 FILLER_0_32_65
*1031 FILLER_0_32_77
*1032 FILLER_0_32_83
*1033 FILLER_0_32_85
*1034 FILLER_0_32_97
*1035 FILLER_0_33_105
*1036 FILLER_0_33_111
*1037 FILLER_0_33_113
*1038 FILLER_0_33_125
*1039 FILLER_0_33_137
*1040 FILLER_0_33_149
*1041 FILLER_0_33_15
*1042 FILLER_0_33_161
*1043 FILLER_0_33_167
*1044 FILLER_0_33_169
*1045 FILLER_0_33_181
*1046 FILLER_0_33_189
*1047 FILLER_0_33_201
*1048 FILLER_0_33_213
*1049 FILLER_0_33_221
*1050 FILLER_0_33_225
*1051 FILLER_0_33_237
*1052 FILLER_0_33_249
*1053 FILLER_0_33_261
*1054 FILLER_0_33_27
*1055 FILLER_0_33_273
*1056 FILLER_0_33_279
*1057 FILLER_0_33_281
*1058 FILLER_0_33_293
*1059 FILLER_0_33_3
*1060 FILLER_0_33_305
*1061 FILLER_0_33_317
*1062 FILLER_0_33_329
*1063 FILLER_0_33_39
*1064 FILLER_0_33_51
*1065 FILLER_0_33_55
*1066 FILLER_0_33_57
*1067 FILLER_0_33_69
*1068 FILLER_0_33_81
*1069 FILLER_0_33_93
*1070 FILLER_0_34_109
*1071 FILLER_0_34_121
*1072 FILLER_0_34_133
*1073 FILLER_0_34_139
*1074 FILLER_0_34_141
*1075 FILLER_0_34_145
*1076 FILLER_0_34_15
*1077 FILLER_0_34_153
*1078 FILLER_0_34_161
*1079 FILLER_0_34_169
*1080 FILLER_0_34_175
*1081 FILLER_0_34_183
*1082 FILLER_0_34_188
*1083 FILLER_0_34_197
*1084 FILLER_0_34_213
*1085 FILLER_0_34_228
*1086 FILLER_0_34_240
*1087 FILLER_0_34_253
*1088 FILLER_0_34_265
*1089 FILLER_0_34_27
*1090 FILLER_0_34_277
*1091 FILLER_0_34_284
*1092 FILLER_0_34_29
*1093 FILLER_0_34_296
*1094 FILLER_0_34_3
*1095 FILLER_0_34_309
*1096 FILLER_0_34_321
*1097 FILLER_0_34_333
*1098 FILLER_0_34_41
*1099 FILLER_0_34_53
*1100 FILLER_0_34_65
*1101 FILLER_0_34_77
*1102 FILLER_0_34_83
*1103 FILLER_0_34_85
*1104 FILLER_0_34_97
*1105 FILLER_0_35_105
*1106 FILLER_0_35_111
*1107 FILLER_0_35_113
*1108 FILLER_0_35_125
*1109 FILLER_0_35_137
*1110 FILLER_0_35_149
*1111 FILLER_0_35_15
*1112 FILLER_0_35_161
*1113 FILLER_0_35_174
*1114 FILLER_0_35_187
*1115 FILLER_0_35_199
*1116 FILLER_0_35_203
*1117 FILLER_0_35_207
*1118 FILLER_0_35_219
*1119 FILLER_0_35_236
*1120 FILLER_0_35_269
*1121 FILLER_0_35_27
*1122 FILLER_0_35_290
*1123 FILLER_0_35_3
*1124 FILLER_0_35_302
*1125 FILLER_0_35_314
*1126 FILLER_0_35_326
*1127 FILLER_0_35_334
*1128 FILLER_0_35_39
*1129 FILLER_0_35_51
*1130 FILLER_0_35_55
*1131 FILLER_0_35_57
*1132 FILLER_0_35_69
*1133 FILLER_0_35_81
*1134 FILLER_0_35_93
*1135 FILLER_0_36_109
*1136 FILLER_0_36_121
*1137 FILLER_0_36_133
*1138 FILLER_0_36_139
*1139 FILLER_0_36_141
*1140 FILLER_0_36_15
*1141 FILLER_0_36_151
*1142 FILLER_0_36_158
*1143 FILLER_0_36_169
*1144 FILLER_0_36_177
*1145 FILLER_0_36_185
*1146 FILLER_0_36_191
*1147 FILLER_0_36_197
*1148 FILLER_0_36_212
*1149 FILLER_0_36_224
*1150 FILLER_0_36_236
*1151 FILLER_0_36_248
*1152 FILLER_0_36_253
*1153 FILLER_0_36_265
*1154 FILLER_0_36_269
*1155 FILLER_0_36_27
*1156 FILLER_0_36_273
*1157 FILLER_0_36_286
*1158 FILLER_0_36_29
*1159 FILLER_0_36_298
*1160 FILLER_0_36_3
*1161 FILLER_0_36_306
*1162 FILLER_0_36_309
*1163 FILLER_0_36_321
*1164 FILLER_0_36_333
*1165 FILLER_0_36_41
*1166 FILLER_0_36_53
*1167 FILLER_0_36_65
*1168 FILLER_0_36_77
*1169 FILLER_0_36_83
*1170 FILLER_0_36_85
*1171 FILLER_0_36_97
*1172 FILLER_0_37_105
*1173 FILLER_0_37_111
*1174 FILLER_0_37_113
*1175 FILLER_0_37_125
*1176 FILLER_0_37_136
*1177 FILLER_0_37_15
*1178 FILLER_0_37_152
*1179 FILLER_0_37_160
*1180 FILLER_0_37_164
*1181 FILLER_0_37_169
*1182 FILLER_0_37_177
*1183 FILLER_0_37_187
*1184 FILLER_0_37_199
*1185 FILLER_0_37_206
*1186 FILLER_0_37_232
*1187 FILLER_0_37_248
*1188 FILLER_0_37_27
*1189 FILLER_0_37_291
*1190 FILLER_0_37_3
*1191 FILLER_0_37_303
*1192 FILLER_0_37_313
*1193 FILLER_0_37_325
*1194 FILLER_0_37_333
*1195 FILLER_0_37_39
*1196 FILLER_0_37_51
*1197 FILLER_0_37_55
*1198 FILLER_0_37_57
*1199 FILLER_0_37_69
*1200 FILLER_0_37_81
*1201 FILLER_0_37_93
*1202 FILLER_0_38_10
*1203 FILLER_0_38_102
*1204 FILLER_0_38_106
*1205 FILLER_0_38_110
*1206 FILLER_0_38_113
*1207 FILLER_0_38_118
*1208 FILLER_0_38_122
*1209 FILLER_0_38_126
*1210 FILLER_0_38_130
*1211 FILLER_0_38_135
*1212 FILLER_0_38_139
*1213 FILLER_0_38_14
*1214 FILLER_0_38_141
*1215 FILLER_0_38_146
*1216 FILLER_0_38_158
*1217 FILLER_0_38_162
*1218 FILLER_0_38_167
*1219 FILLER_0_38_173
*1220 FILLER_0_38_177
*1221 FILLER_0_38_18
*1222 FILLER_0_38_188
*1223 FILLER_0_38_208
*1224 FILLER_0_38_216
*1225 FILLER_0_38_22
*1226 FILLER_0_38_225
*1227 FILLER_0_38_248
*1228 FILLER_0_38_253
*1229 FILLER_0_38_263
*1230 FILLER_0_38_273
*1231 FILLER_0_38_279
*1232 FILLER_0_38_281
*1233 FILLER_0_38_287
*1234 FILLER_0_38_305
*1235 FILLER_0_38_319
*1236 FILLER_0_38_32
*1237 FILLER_0_38_331
*1238 FILLER_0_38_38
*1239 FILLER_0_38_42
*1240 FILLER_0_38_46
*1241 FILLER_0_38_50
*1242 FILLER_0_38_54
*1243 FILLER_0_38_57
*1244 FILLER_0_38_6
*1245 FILLER_0_38_62
*1246 FILLER_0_38_66
*1247 FILLER_0_38_70
*1248 FILLER_0_38_74
*1249 FILLER_0_38_78
*1250 FILLER_0_38_88
*1251 FILLER_0_38_94
*1252 FILLER_0_38_98
*1253 FILLER_0_3_105
*1254 FILLER_0_3_111
*1255 FILLER_0_3_113
*1256 FILLER_0_3_125
*1257 FILLER_0_3_137
*1258 FILLER_0_3_149
*1259 FILLER_0_3_15
*1260 FILLER_0_3_161
*1261 FILLER_0_3_167
*1262 FILLER_0_3_169
*1263 FILLER_0_3_181
*1264 FILLER_0_3_193
*1265 FILLER_0_3_205
*1266 FILLER_0_3_217
*1267 FILLER_0_3_223
*1268 FILLER_0_3_225
*1269 FILLER_0_3_237
*1270 FILLER_0_3_249
*1271 FILLER_0_3_261
*1272 FILLER_0_3_27
*1273 FILLER_0_3_273
*1274 FILLER_0_3_279
*1275 FILLER_0_3_281
*1276 FILLER_0_3_293
*1277 FILLER_0_3_3
*1278 FILLER_0_3_305
*1279 FILLER_0_3_317
*1280 FILLER_0_3_329
*1281 FILLER_0_3_39
*1282 FILLER_0_3_51
*1283 FILLER_0_3_55
*1284 FILLER_0_3_57
*1285 FILLER_0_3_69
*1286 FILLER_0_3_81
*1287 FILLER_0_3_93
*1288 FILLER_0_4_109
*1289 FILLER_0_4_121
*1290 FILLER_0_4_133
*1291 FILLER_0_4_139
*1292 FILLER_0_4_141
*1293 FILLER_0_4_15
*1294 FILLER_0_4_153
*1295 FILLER_0_4_165
*1296 FILLER_0_4_177
*1297 FILLER_0_4_189
*1298 FILLER_0_4_195
*1299 FILLER_0_4_197
*1300 FILLER_0_4_209
*1301 FILLER_0_4_221
*1302 FILLER_0_4_233
*1303 FILLER_0_4_245
*1304 FILLER_0_4_251
*1305 FILLER_0_4_253
*1306 FILLER_0_4_265
*1307 FILLER_0_4_27
*1308 FILLER_0_4_277
*1309 FILLER_0_4_289
*1310 FILLER_0_4_29
*1311 FILLER_0_4_3
*1312 FILLER_0_4_301
*1313 FILLER_0_4_307
*1314 FILLER_0_4_309
*1315 FILLER_0_4_321
*1316 FILLER_0_4_333
*1317 FILLER_0_4_41
*1318 FILLER_0_4_53
*1319 FILLER_0_4_65
*1320 FILLER_0_4_77
*1321 FILLER_0_4_83
*1322 FILLER_0_4_85
*1323 FILLER_0_4_97
*1324 FILLER_0_5_105
*1325 FILLER_0_5_111
*1326 FILLER_0_5_113
*1327 FILLER_0_5_125
*1328 FILLER_0_5_137
*1329 FILLER_0_5_149
*1330 FILLER_0_5_15
*1331 FILLER_0_5_161
*1332 FILLER_0_5_167
*1333 FILLER_0_5_169
*1334 FILLER_0_5_181
*1335 FILLER_0_5_193
*1336 FILLER_0_5_205
*1337 FILLER_0_5_217
*1338 FILLER_0_5_223
*1339 FILLER_0_5_225
*1340 FILLER_0_5_237
*1341 FILLER_0_5_249
*1342 FILLER_0_5_261
*1343 FILLER_0_5_27
*1344 FILLER_0_5_273
*1345 FILLER_0_5_279
*1346 FILLER_0_5_281
*1347 FILLER_0_5_293
*1348 FILLER_0_5_3
*1349 FILLER_0_5_305
*1350 FILLER_0_5_317
*1351 FILLER_0_5_329
*1352 FILLER_0_5_39
*1353 FILLER_0_5_51
*1354 FILLER_0_5_55
*1355 FILLER_0_5_57
*1356 FILLER_0_5_69
*1357 FILLER_0_5_81
*1358 FILLER_0_5_93
*1359 FILLER_0_6_109
*1360 FILLER_0_6_121
*1361 FILLER_0_6_133
*1362 FILLER_0_6_139
*1363 FILLER_0_6_141
*1364 FILLER_0_6_15
*1365 FILLER_0_6_153
*1366 FILLER_0_6_165
*1367 FILLER_0_6_177
*1368 FILLER_0_6_189
*1369 FILLER_0_6_195
*1370 FILLER_0_6_197
*1371 FILLER_0_6_209
*1372 FILLER_0_6_221
*1373 FILLER_0_6_233
*1374 FILLER_0_6_245
*1375 FILLER_0_6_251
*1376 FILLER_0_6_253
*1377 FILLER_0_6_265
*1378 FILLER_0_6_27
*1379 FILLER_0_6_277
*1380 FILLER_0_6_289
*1381 FILLER_0_6_29
*1382 FILLER_0_6_3
*1383 FILLER_0_6_301
*1384 FILLER_0_6_307
*1385 FILLER_0_6_309
*1386 FILLER_0_6_321
*1387 FILLER_0_6_333
*1388 FILLER_0_6_41
*1389 FILLER_0_6_53
*1390 FILLER_0_6_65
*1391 FILLER_0_6_77
*1392 FILLER_0_6_83
*1393 FILLER_0_6_85
*1394 FILLER_0_6_97
*1395 FILLER_0_7_105
*1396 FILLER_0_7_111
*1397 FILLER_0_7_113
*1398 FILLER_0_7_125
*1399 FILLER_0_7_137
*1400 FILLER_0_7_149
*1401 FILLER_0_7_15
*1402 FILLER_0_7_161
*1403 FILLER_0_7_167
*1404 FILLER_0_7_169
*1405 FILLER_0_7_181
*1406 FILLER_0_7_193
*1407 FILLER_0_7_205
*1408 FILLER_0_7_217
*1409 FILLER_0_7_223
*1410 FILLER_0_7_225
*1411 FILLER_0_7_237
*1412 FILLER_0_7_249
*1413 FILLER_0_7_261
*1414 FILLER_0_7_27
*1415 FILLER_0_7_273
*1416 FILLER_0_7_279
*1417 FILLER_0_7_281
*1418 FILLER_0_7_293
*1419 FILLER_0_7_3
*1420 FILLER_0_7_305
*1421 FILLER_0_7_317
*1422 FILLER_0_7_329
*1423 FILLER_0_7_39
*1424 FILLER_0_7_51
*1425 FILLER_0_7_55
*1426 FILLER_0_7_57
*1427 FILLER_0_7_69
*1428 FILLER_0_7_81
*1429 FILLER_0_7_93
*1430 FILLER_0_8_109
*1431 FILLER_0_8_121
*1432 FILLER_0_8_133
*1433 FILLER_0_8_139
*1434 FILLER_0_8_141
*1435 FILLER_0_8_15
*1436 FILLER_0_8_153
*1437 FILLER_0_8_165
*1438 FILLER_0_8_177
*1439 FILLER_0_8_189
*1440 FILLER_0_8_195
*1441 FILLER_0_8_197
*1442 FILLER_0_8_209
*1443 FILLER_0_8_221
*1444 FILLER_0_8_233
*1445 FILLER_0_8_245
*1446 FILLER_0_8_251
*1447 FILLER_0_8_253
*1448 FILLER_0_8_265
*1449 FILLER_0_8_27
*1450 FILLER_0_8_277
*1451 FILLER_0_8_289
*1452 FILLER_0_8_29
*1453 FILLER_0_8_3
*1454 FILLER_0_8_301
*1455 FILLER_0_8_307
*1456 FILLER_0_8_309
*1457 FILLER_0_8_321
*1458 FILLER_0_8_333
*1459 FILLER_0_8_41
*1460 FILLER_0_8_53
*1461 FILLER_0_8_65
*1462 FILLER_0_8_77
*1463 FILLER_0_8_83
*1464 FILLER_0_8_85
*1465 FILLER_0_8_97
*1466 FILLER_0_9_105
*1467 FILLER_0_9_111
*1468 FILLER_0_9_113
*1469 FILLER_0_9_125
*1470 FILLER_0_9_137
*1471 FILLER_0_9_149
*1472 FILLER_0_9_15
*1473 FILLER_0_9_161
*1474 FILLER_0_9_167
*1475 FILLER_0_9_169
*1476 FILLER_0_9_181