*SPEF "ieee 1481-1999"
*DESIGN "tt_um_iron_violet_simon"
*DATE "02:19:25 Friday April 19, 2024"
*VENDOR "The OpenROAD Project"
*PROGRAM "OpenROAD"
*VERSION "0889970d1790a2617e69f253221b8bd7626e51dc"
*DESIGN_FLOW "NAME_SCOPE LOCAL" "PIN_CAP NONE"
*DIVIDER /
*DELIMITER :
*BUS_DELIMITER []
*T_UNIT 1 NS
*C_UNIT 1 PF
*R_UNIT 1 OHM
*L_UNIT 1 HENRY

*NAME_MAP
*3 clk
*4 ena
*5 rst_n
*6 ui_in[0]
*7 ui_in[1]
*8 ui_in[2]
*9 ui_in[3]
*10 ui_in[4]
*11 ui_in[5]
*12 ui_in[6]
*13 ui_in[7]
*14 uio_in[0]
*15 uio_in[1]
*16 uio_in[2]
*17 uio_in[3]
*18 uio_in[4]
*19 uio_in[5]
*20 uio_in[6]
*21 uio_in[7]
*22 net38
*23 net39
*24 net40
*25 net41
*26 net42
*27 net43
*28 net44
*29 net45
*30 net46
*31 net47
*32 net48
*33 net49
*34 net50
*35 net51
*36 net52
*37 net53
*38 uo_out[0]
*39 uo_out[1]
*40 uo_out[2]
*41 uo_out[3]
*42 uo_out[4]
*43 net54
*44 net55
*45 net56
*46 _0000_
*47 _0001_
*48 _0002_
*49 _0003_
*50 _0004_
*51 _0005_
*52 _0006_
*53 _0007_
*54 _0008_
*55 _0009_
*56 _0010_
*57 _0011_
*58 _0012_
*59 _0013_
*60 _0014_
*61 _0015_
*62 _0016_
*63 _0017_
*64 _0018_
*65 _0019_
*66 _0020_
*67 _0021_
*68 _0022_
*69 _0023_
*70 _0024_
*71 _0025_
*72 _0026_
*73 _0027_
*74 _0028_
*75 _0029_
*76 _0030_
*77 _0031_
*78 _0032_
*79 _0033_
*80 _0034_
*81 _0035_
*82 _0036_
*83 _0037_
*84 _0038_
*85 _0039_
*86 _0040_
*87 _0041_
*88 _0042_
*89 _0043_
*90 _0044_
*91 _0045_
*92 _0046_
*93 _0047_
*94 _0048_
*95 _0049_
*96 _0050_
*97 _0051_
*98 _0052_
*99 _0053_
*100 _0054_
*101 _0055_
*102 _0056_
*103 _0057_
*104 _0058_
*105 _0059_
*106 _0060_
*107 _0061_
*108 _0062_
*109 _0063_
*110 _0064_
*111 _0065_
*112 _0066_
*113 _0067_
*114 _0068_
*115 _0069_
*116 _0070_
*117 _0071_
*118 _0072_
*119 _0073_
*120 _0074_
*121 _0075_
*122 _0076_
*123 _0077_
*124 _0078_
*125 _0079_
*126 _0080_
*127 _0081_
*128 _0082_
*129 _0083_
*130 _0084_
*131 _0085_
*132 _0086_
*133 _0087_
*134 _0088_
*135 _0089_
*136 _0090_
*137 _0091_
*138 _0092_
*139 _0093_
*140 _0094_
*141 _0095_
*142 _0096_
*143 _0097_
*144 _0098_
*145 _0099_
*146 _0100_
*147 _0101_
*148 _0102_
*149 _0103_
*150 _0104_
*151 _0105_
*152 _0106_
*153 _0107_
*154 _0108_
*155 _0109_
*156 _0110_
*157 _0111_
*158 _0112_
*159 _0113_
*160 _0114_
*161 _0115_
*162 _0116_
*163 _0117_
*164 _0118_
*165 _0119_
*166 _0120_
*167 _0121_
*168 _0122_
*169 _0123_
*170 _0124_
*171 _0125_
*172 _0126_
*173 _0127_
*174 _0128_
*175 _0129_
*176 _0130_
*177 _0131_
*178 _0132_
*179 _0133_
*180 _0134_
*181 _0135_
*182 _0136_
*183 _0137_
*184 _0138_
*185 _0139_
*186 _0140_
*187 _0141_
*188 _0142_
*189 _0143_
*190 _0144_
*191 _0145_
*192 _0146_
*193 _0147_
*194 _0148_
*195 _0149_
*196 _0150_
*197 _0151_
*198 _0152_
*199 _0153_
*200 _0154_
*201 _0155_
*202 _0156_
*203 _0157_
*204 _0158_
*205 _0159_
*206 _0160_
*207 _0161_
*208 _0162_
*209 _0163_
*210 _0164_
*211 _0165_
*212 _0166_
*213 _0167_
*214 _0168_
*215 _0169_
*216 _0170_
*217 _0171_
*218 _0172_
*219 _0173_
*220 _0174_
*221 _0175_
*222 _0176_
*223 _0177_
*224 _0178_
*225 _0179_
*226 _0180_
*227 _0181_
*228 _0182_
*229 _0183_
*230 _0184_
*231 _0185_
*232 _0186_
*233 _0187_
*234 _0188_
*235 _0189_
*236 _0190_
*237 _0191_
*238 _0192_
*239 _0193_
*240 _0194_
*241 _0195_
*242 _0196_
*243 _0197_
*244 _0198_
*245 _0199_
*246 _0200_
*247 _0201_
*248 _0202_
*249 _0203_
*250 _0204_
*251 _0205_
*252 _0206_
*253 _0207_
*254 _0208_
*255 _0209_
*256 _0210_
*257 _0211_
*258 _0212_
*259 _0213_
*260 _0214_
*261 _0215_
*262 _0216_
*263 _0217_
*264 _0218_
*265 _0219_
*266 _0220_
*267 _0221_
*268 _0222_
*269 _0223_
*270 _0224_
*271 _0225_
*272 _0226_
*273 _0227_
*274 _0228_
*275 _0229_
*276 _0230_
*277 _0231_
*278 _0232_
*279 _0233_
*280 _0234_
*281 _0235_
*282 _0236_
*283 _0237_
*284 _0238_
*285 _0239_
*286 _0240_
*287 _0241_
*288 _0242_
*289 _0243_
*290 _0244_
*291 _0245_
*292 _0246_
*293 _0247_
*294 _0248_
*295 _0249_
*296 _0250_
*297 _0251_
*298 _0252_
*299 _0253_
*300 _0254_
*301 _0255_
*302 _0256_
*303 _0257_
*304 _0258_
*305 _0259_
*306 _0260_
*307 _0261_
*308 _0262_
*309 _0263_
*310 _0264_
*311 _0265_
*312 _0266_
*313 _0267_
*314 _0268_
*315 _0269_
*316 _0270_
*317 _0271_
*318 _0272_
*319 _0273_
*320 _0274_
*321 _0275_
*322 _0276_
*323 _0277_
*324 _0278_
*325 _0279_
*326 _0280_
*327 _0281_
*328 _0282_
*329 _0283_
*330 _0284_
*331 _0285_
*332 _0286_
*333 _0287_
*334 _0288_
*335 _0289_
*336 _0290_
*337 _0291_
*338 _0292_
*339 _0293_
*340 _0294_
*341 _0295_
*342 _0296_
*343 _0297_
*344 _0298_
*345 _0299_
*346 _0300_
*347 _0301_
*348 _0302_
*349 _0303_
*350 _0304_
*351 _0305_
*352 _0306_
*353 _0307_
*354 _0308_
*355 _0309_
*356 _0310_
*357 _0311_
*358 _0312_
*359 _0313_
*360 _0314_
*361 _0315_
*362 _0316_
*363 _0317_
*364 _0318_
*365 _0319_
*366 _0320_
*367 _0321_
*368 _0322_
*369 _0323_
*370 _0324_
*371 _0325_
*372 _0326_
*373 _0327_
*374 _0328_
*375 _0329_
*376 _0330_
*377 _0331_
*378 _0332_
*379 _0333_
*380 _0334_
*381 _0335_
*382 _0336_
*383 _0337_
*384 _0338_
*385 _0339_
*386 _0340_
*387 _0341_
*388 _0342_
*389 _0343_
*390 _0344_
*391 _0345_
*392 _0346_
*393 _0347_
*394 _0348_
*395 _0349_
*396 _0350_
*397 _0351_
*398 _0352_
*399 _0353_
*400 _0354_
*401 _0355_
*402 _0356_
*403 _0357_
*404 _0358_
*405 _0359_
*406 _0360_
*407 _0361_
*408 _0362_
*409 _0363_
*410 _0364_
*411 _0365_
*412 _0366_
*413 _0367_
*414 _0368_
*415 _0369_
*416 _0370_
*417 _0371_
*418 _0372_
*419 _0373_
*420 _0374_
*421 _0375_
*422 _0376_
*423 _0377_
*424 _0378_
*425 _0379_
*426 _0380_
*427 _0381_
*428 _0382_
*429 _0383_
*430 _0384_
*431 _0385_
*432 _0386_
*433 _0387_
*434 _0388_
*435 _0389_
*436 _0390_
*437 _0391_
*438 _0392_
*439 _0393_
*440 _0394_
*441 _0395_
*442 _0396_
*443 _0397_
*444 _0398_
*445 _0399_
*446 _0400_
*447 _0401_
*448 _0402_
*449 _0403_
*450 _0404_
*451 _0405_
*452 _0406_
*453 _0407_
*454 _0408_
*455 _0409_
*456 _0410_
*457 _0411_
*458 _0412_
*459 _0413_
*460 _0414_
*461 _0415_
*462 _0416_
*463 _0417_
*464 _0418_
*465 _0419_
*466 _0420_
*467 _0421_
*468 _0422_
*469 _0423_
*470 _0424_
*471 _0425_
*472 _0426_
*473 _0427_
*474 _0428_
*475 _0429_
*476 _0430_
*477 _0431_
*478 _0432_
*479 _0433_
*480 _0434_
*481 _0435_
*482 _0436_
*483 _0437_
*484 _0438_
*485 _0439_
*486 _0440_
*487 _0441_
*488 _0442_
*489 _0443_
*490 _0444_
*491 _0445_
*492 _0446_
*493 _0447_
*494 _0448_
*495 _0449_
*496 _0450_
*497 _0451_
*498 _0452_
*499 _0453_
*500 _0454_
*501 _0455_
*502 _0456_
*503 _0457_
*504 _0458_
*505 _0459_
*506 _0460_
*507 _0461_
*508 _0462_
*509 _0463_
*510 _0464_
*511 _0465_
*512 _0466_
*513 _0467_
*514 _0468_
*515 _0469_
*516 _0470_
*517 _0471_
*518 _0472_
*519 _0473_
*520 _0474_
*521 _0475_
*522 _0476_
*523 _0477_
*524 _0478_
*525 _0479_
*526 _0480_
*527 _0481_
*528 _0482_
*529 _0483_
*530 _0484_
*531 _0485_
*532 _0486_
*533 _0487_
*534 _0488_
*535 _0489_
*536 _0490_
*537 _0491_
*538 _0492_
*539 _0493_
*540 _0494_
*541 _0495_
*542 _0496_
*543 _0497_
*544 _0498_
*545 _0499_
*546 _0500_
*547 _0501_
*548 _0502_
*549 _0503_
*550 _0504_
*551 _0505_
*552 _0506_
*553 _0507_
*554 _0508_
*555 _0509_
*556 _0510_
*557 _0511_
*558 _0512_
*559 _0513_
*560 _0514_
*561 _0515_
*562 _0516_
*563 _0517_
*564 _0518_
*565 _0519_
*566 _0520_
*567 _0521_
*568 _0522_
*569 _0523_
*570 _0524_
*571 _0525_
*572 _0526_
*573 _0527_
*574 _0528_
*575 _0529_
*576 _0530_
*577 _0531_
*578 _0532_
*579 _0533_
*580 _0534_
*581 _0535_
*582 _0536_
*583 _0537_
*584 _0538_
*585 _0539_
*586 _0540_
*587 _0541_
*588 _0542_
*589 _0543_
*590 _0544_
*591 _0545_
*592 _0546_
*593 _0547_
*594 _0548_
*595 _0549_
*596 _0550_
*597 _0551_
*598 _0552_
*599 _0553_
*600 _0554_
*601 _0555_
*602 _0556_
*603 _0557_
*604 _0558_
*605 _0559_
*606 _0560_
*607 _0561_
*608 _0562_
*609 _0563_
*610 _0564_
*611 _0565_
*612 _0566_
*613 _0567_
*614 _0568_
*615 _0569_
*616 _0570_
*617 _0571_
*618 _0572_
*619 _0573_
*620 _0574_
*621 _0575_
*622 _0576_
*623 _0577_
*624 _0578_
*625 _0579_
*626 _0580_
*627 _0581_
*628 _0582_
*629 _0583_
*630 _0584_
*631 _0585_
*632 _0586_
*633 _0587_
*634 _0588_
*635 _0589_
*636 _0590_
*637 _0591_
*638 _0592_
*639 _0593_
*640 _0594_
*641 _0595_
*642 _0596_
*643 _0597_
*644 _0598_
*645 _0599_
*646 _0600_
*647 _0601_
*648 _0602_
*649 _0603_
*650 _0604_
*651 _0605_
*652 _0606_
*653 _0607_
*654 _0608_
*655 _0609_
*656 _0610_
*657 _0611_
*658 _0612_
*659 _0613_
*660 _0614_
*661 _0615_
*662 _0616_
*663 _0617_
*664 _0618_
*665 _0619_
*666 _0620_
*667 _0621_
*668 _0622_
*669 _0623_
*670 _0624_
*671 _0625_
*672 _0626_
*673 _0627_
*674 _0628_
*675 _0629_
*676 _0630_
*677 _0631_
*678 _0632_
*679 _0633_
*680 _0634_
*681 _0635_
*682 _0636_
*683 _0637_
*684 _0638_
*685 _0639_
*686 _0640_
*687 _0641_
*688 _0642_
*689 _0643_
*690 _0644_
*691 _0645_
*692 _0646_
*693 _0647_
*694 _0648_
*695 _0649_
*696 _0650_
*697 _0651_
*698 _0652_
*699 _0653_
*700 _0654_
*701 _0655_
*702 _0656_
*703 _0657_
*704 _0658_
*705 _0659_
*706 _0660_
*707 _0661_
*708 _0662_
*709 _0663_
*710 _0664_
*711 _0665_
*712 _0666_
*713 _0667_
*714 _0668_
*715 _0669_
*716 _0670_
*717 _0671_
*718 _0672_
*719 _0673_
*720 _0674_
*721 _0675_
*722 _0676_
*723 _0677_
*724 _0678_
*725 _0679_
*726 _0680_
*727 _0681_
*728 _0682_
*729 _0683_
*730 _0684_
*731 _0685_
*732 _0686_
*733 _0687_
*734 _0688_
*735 _0689_
*736 _0690_
*737 _0691_
*738 _0692_
*739 _0693_
*740 _0694_
*741 _0695_
*742 _0696_
*743 _0697_
*744 _0698_
*745 clk_div_u1\.CLK_OUT
*746 clk_div_u1\.cntr\[0\]
*747 clk_div_u1\.cntr\[10\]
*748 clk_div_u1\.cntr\[11\]
*749 clk_div_u1\.cntr\[12\]
*750 clk_div_u1\.cntr\[1\]
*751 clk_div_u1\.cntr\[2\]
*752 clk_div_u1\.cntr\[3\]
*753 clk_div_u1\.cntr\[4\]
*754 clk_div_u1\.cntr\[5\]
*755 clk_div_u1\.cntr\[6\]
*756 clk_div_u1\.cntr\[7\]
*757 clk_div_u1\.cntr\[8\]
*758 clk_div_u1\.cntr\[9\]
*759 clknet_0_clk
*760 clknet_1_0__leaf_clk
*761 clknet_1_1__leaf_clk
*762 controller_u1\.HS
*763 controller_u1\.IN\[0\]
*764 controller_u1\.IN\[1\]
*765 controller_u1\.IN_VALID
*766 controller_u1\.OUT\[0\]
*767 controller_u1\.OUT\[1\]
*768 controller_u1\.OUT_ENA
*769 controller_u1\.RAND\[0\]
*770 controller_u1\.RAND\[1\]
*771 controller_u1\.clr_turn
*772 controller_u1\.cnt\[0\]
*773 controller_u1\.cnt\[1\]
*774 controller_u1\.cnt\[2\]
*775 controller_u1\.cnt\[3\]
*776 controller_u1\.cnt\[4\]
*777 controller_u1\.go_turn
*778 controller_u1\.good_hold
*779 controller_u1\.high_score\[0\]
*780 controller_u1\.high_score\[1\]
*781 controller_u1\.high_score\[2\]
*782 controller_u1\.high_score\[3\]
*783 controller_u1\.high_score\[4\]
*784 controller_u1\.high_score\[5\]
*785 controller_u1\.i\[0\]
*786 controller_u1\.i\[1\]
*787 controller_u1\.i\[2\]
*788 controller_u1\.i\[3\]
*789 controller_u1\.i\[4\]
*790 controller_u1\.last_color
*791 controller_u1\.stack\[0\]\[0\]
*792 controller_u1\.stack\[0\]\[1\]
*793 controller_u1\.stack\[10\]\[0\]
*794 controller_u1\.stack\[10\]\[1\]
*795 controller_u1\.stack\[11\]\[0\]
*796 controller_u1\.stack\[11\]\[1\]
*797 controller_u1\.stack\[12\]\[0\]
*798 controller_u1\.stack\[12\]\[1\]
*799 controller_u1\.stack\[13\]\[0\]
*800 controller_u1\.stack\[13\]\[1\]
*801 controller_u1\.stack\[14\]\[0\]
*802 controller_u1\.stack\[14\]\[1\]
*803 controller_u1\.stack\[15\]\[0\]
*804 controller_u1\.stack\[15\]\[1\]
*805 controller_u1\.stack\[16\]\[0\]
*806 controller_u1\.stack\[16\]\[1\]
*807 controller_u1\.stack\[17\]\[0\]
*808 controller_u1\.stack\[17\]\[1\]
*809 controller_u1\.stack\[18\]\[0\]
*810 controller_u1\.stack\[18\]\[1\]
*811 controller_u1\.stack\[19\]\[0\]
*812 controller_u1\.stack\[19\]\[1\]
*813 controller_u1\.stack\[1\]\[0\]
*814 controller_u1\.stack\[1\]\[1\]
*815 controller_u1\.stack\[20\]\[0\]
*816 controller_u1\.stack\[20\]\[1\]
*817 controller_u1\.stack\[21\]\[0\]
*818 controller_u1\.stack\[21\]\[1\]
*819 controller_u1\.stack\[22\]\[0\]
*820 controller_u1\.stack\[22\]\[1\]
*821 controller_u1\.stack\[23\]\[0\]
*822 controller_u1\.stack\[23\]\[1\]
*823 controller_u1\.stack\[24\]\[0\]
*824 controller_u1\.stack\[24\]\[1\]
*825 controller_u1\.stack\[25\]\[0\]
*826 controller_u1\.stack\[25\]\[1\]
*827 controller_u1\.stack\[26\]\[0\]
*828 controller_u1\.stack\[26\]\[1\]
*829 controller_u1\.stack\[27\]\[0\]
*830 controller_u1\.stack\[27\]\[1\]
*831 controller_u1\.stack\[28\]\[0\]
*832 controller_u1\.stack\[28\]\[1\]
*833 controller_u1\.stack\[29\]\[0\]
*834 controller_u1\.stack\[29\]\[1\]
*835 controller_u1\.stack\[2\]\[0\]
*836 controller_u1\.stack\[2\]\[1\]
*837 controller_u1\.stack\[31\]\[0\]
*838 controller_u1\.stack\[31\]\[1\]
*839 controller_u1\.stack\[3\]\[0\]
*840 controller_u1\.stack\[3\]\[1\]
*841 controller_u1\.stack\[4\]\[0\]
*842 controller_u1\.stack\[4\]\[1\]
*843 controller_u1\.stack\[5\]\[0\]
*844 controller_u1\.stack\[5\]\[1\]
*845 controller_u1\.stack\[6\]\[0\]
*846 controller_u1\.stack\[6\]\[1\]
*847 controller_u1\.stack\[7\]\[0\]
*848 controller_u1\.stack\[7\]\[1\]
*849 controller_u1\.stack\[8\]\[0\]
*850 controller_u1\.stack\[8\]\[1\]
*851 controller_u1\.stack\[9\]\[0\]
*852 controller_u1\.stack\[9\]\[1\]
*853 controller_u1\.state\[0\]
*854 controller_u1\.state\[1\]
*855 controller_u1\.state\[2\]
*856 controller_u1\.state\[3\]
*857 controller_u1\.state\[4\]
*858 controller_u1\.timeout_turn
*859 controller_u1\.timer_count\[10\]
*860 controller_u1\.timer_count\[11\]
*861 controller_u1\.timer_count\[14\]
*862 controller_u1\.timer_count\[6\]
*863 controller_u1\.timer_count\[7\]
*864 controller_u1\.timer_count\[8\]
*865 controller_u1\.turn_timer_u1\.compare\[10\]
*866 controller_u1\.turn_timer_u1\.compare\[11\]
*867 controller_u1\.turn_timer_u1\.compare\[14\]
*868 controller_u1\.turn_timer_u1\.compare\[6\]
*869 controller_u1\.turn_timer_u1\.compare\[7\]
*870 controller_u1\.turn_timer_u1\.compare\[8\]
*871 controller_u1\.turn_timer_u1\.counter\[0\]
*872 controller_u1\.turn_timer_u1\.counter\[10\]
*873 controller_u1\.turn_timer_u1\.counter\[11\]
*874 controller_u1\.turn_timer_u1\.counter\[12\]
*875 controller_u1\.turn_timer_u1\.counter\[13\]
*876 controller_u1\.turn_timer_u1\.counter\[14\]
*877 controller_u1\.turn_timer_u1\.counter\[15\]
*878 controller_u1\.turn_timer_u1\.counter\[16\]
*879 controller_u1\.turn_timer_u1\.counter\[17\]
*880 controller_u1\.turn_timer_u1\.counter\[18\]
*881 controller_u1\.turn_timer_u1\.counter\[19\]
*882 controller_u1\.turn_timer_u1\.counter\[1\]
*883 controller_u1\.turn_timer_u1\.counter\[20\]
*884 controller_u1\.turn_timer_u1\.counter\[21\]
*885 controller_u1\.turn_timer_u1\.counter\[22\]
*886 controller_u1\.turn_timer_u1\.counter\[23\]
*887 controller_u1\.turn_timer_u1\.counter\[24\]
*888 controller_u1\.turn_timer_u1\.counter\[2\]
*889 controller_u1\.turn_timer_u1\.counter\[3\]
*890 controller_u1\.turn_timer_u1\.counter\[4\]
*891 controller_u1\.turn_timer_u1\.counter\[5\]
*892 controller_u1\.turn_timer_u1\.counter\[6\]
*893 controller_u1\.turn_timer_u1\.counter\[7\]
*894 controller_u1\.turn_timer_u1\.counter\[8\]
*895 controller_u1\.turn_timer_u1\.counter\[9\]
*896 controller_u1\.turn_timer_u1\.state\[0\]
*897 controller_u1\.turn_timer_u1\.state\[1\]
*898 net1
*899 net10
*900 net11
*901 net12
*902 net13
*903 net14
*904 net15
*905 net16
*906 net17
*907 net18
*908 net19
*909 net2
*910 net20
*911 net21
*912 net22
*913 net23
*914 net24
*915 net25
*916 net26
*917 net27
*918 net28
*919 net29
*920 net3
*921 net30
*922 net31
*923 net32
*924 net33
*925 net34
*926 net35
*927 net36
*928 net37
*929 net4
*930 net5
*931 net57
*932 net58
*933 net59
*934 net6
*935 net60
*936 net61
*937 net62
*938 net63
*939 net64
*940 net65
*941 net66
*942 net67
*943 net68
*944 net7
*945 net8
*946 net9
*947 FILLER_0_0_109
*948 FILLER_0_0_113
*949 FILLER_0_0_125
*950 FILLER_0_0_137
*951 FILLER_0_0_141
*952 FILLER_0_0_15
*953 FILLER_0_0_153
*954 FILLER_0_0_165
*955 FILLER_0_0_169
*956 FILLER_0_0_181
*957 FILLER_0_0_193
*958 FILLER_0_0_197
*959 FILLER_0_0_209
*960 FILLER_0_0_221
*961 FILLER_0_0_225
*962 FILLER_0_0_237
*963 FILLER_0_0_249
*964 FILLER_0_0_253
*965 FILLER_0_0_265
*966 FILLER_0_0_27
*967 FILLER_0_0_277
*968 FILLER_0_0_281
*969 FILLER_0_0_29
*970 FILLER_0_0_293
*971 FILLER_0_0_3
*972 FILLER_0_0_305
*973 FILLER_0_0_309
*974 FILLER_0_0_321
*975 FILLER_0_0_333
*976 FILLER_0_0_41
*977 FILLER_0_0_53
*978 FILLER_0_0_57
*979 FILLER_0_0_69
*980 FILLER_0_0_80
*981 FILLER_0_0_85
*982 FILLER_0_0_97
*983 FILLER_0_10_100
*984 FILLER_0_10_124
*985 FILLER_0_10_128
*986 FILLER_0_10_134
*987 FILLER_0_10_146
*988 FILLER_0_10_15
*989 FILLER_0_10_150
*990 FILLER_0_10_156
*991 FILLER_0_10_180
*992 FILLER_0_10_188
*993 FILLER_0_10_197
*994 FILLER_0_10_214
*995 FILLER_0_10_226
*996 FILLER_0_10_238
*997 FILLER_0_10_248
*998 FILLER_0_10_258
*999 FILLER_0_10_270
*1000 FILLER_0_10_278
*1001 FILLER_0_10_282
*1002 FILLER_0_10_288
*1003 FILLER_0_10_3
*1004 FILLER_0_10_300
*1005 FILLER_0_10_309
*1006 FILLER_0_10_324
*1007 FILLER_0_10_332
*1008 FILLER_0_10_38
*1009 FILLER_0_10_81
*1010 FILLER_0_10_85
*1011 FILLER_0_10_93
*1012 FILLER_0_11_111
*1013 FILLER_0_11_125
*1014 FILLER_0_11_133
*1015 FILLER_0_11_15
*1016 FILLER_0_11_153
*1017 FILLER_0_11_161
*1018 FILLER_0_11_185
*1019 FILLER_0_11_197
*1020 FILLER_0_11_217
*1021 FILLER_0_11_22
*1022 FILLER_0_11_223
*1023 FILLER_0_11_225
*1024 FILLER_0_11_229
*1025 FILLER_0_11_258
*1026 FILLER_0_11_270
*1027 FILLER_0_11_278
*1028 FILLER_0_11_281
*1029 FILLER_0_11_293
*1030 FILLER_0_11_3
*1031 FILLER_0_11_301
*1032 FILLER_0_11_307
*1033 FILLER_0_11_319
*1034 FILLER_0_11_331
*1035 FILLER_0_11_42
*1036 FILLER_0_11_50
*1037 FILLER_0_11_57
*1038 FILLER_0_11_72
*1039 FILLER_0_11_84
*1040 FILLER_0_11_92
*1041 FILLER_0_11_96
*1042 FILLER_0_12_120
*1043 FILLER_0_12_132
*1044 FILLER_0_12_137
*1045 FILLER_0_12_150
*1046 FILLER_0_12_161
*1047 FILLER_0_12_175
*1048 FILLER_0_12_195
*1049 FILLER_0_12_216
*1050 FILLER_0_12_228
*1051 FILLER_0_12_236
*1052 FILLER_0_12_245
*1053 FILLER_0_12_251
*1054 FILLER_0_12_253
*1055 FILLER_0_12_277
*1056 FILLER_0_12_285
*1057 FILLER_0_12_3
*1058 FILLER_0_12_315
*1059 FILLER_0_12_327
*1060 FILLER_0_12_38
*1061 FILLER_0_12_50
*1062 FILLER_0_12_56
*1063 FILLER_0_12_62
*1064 FILLER_0_12_74
*1065 FILLER_0_12_82
*1066 FILLER_0_12_85
*1067 FILLER_0_13_102
*1068 FILLER_0_13_110
*1069 FILLER_0_13_113
*1070 FILLER_0_13_121
*1071 FILLER_0_13_155
*1072 FILLER_0_13_167
*1073 FILLER_0_13_213
*1074 FILLER_0_13_221
*1075 FILLER_0_13_225
*1076 FILLER_0_13_233
*1077 FILLER_0_13_238
*1078 FILLER_0_13_248
*1079 FILLER_0_13_258
*1080 FILLER_0_13_270
*1081 FILLER_0_13_288
*1082 FILLER_0_13_295
*1083 FILLER_0_13_3
*1084 FILLER_0_13_301
*1085 FILLER_0_13_309
*1086 FILLER_0_13_31
*1087 FILLER_0_13_331
*1088 FILLER_0_13_43
*1089 FILLER_0_13_57
*1090 FILLER_0_13_67
*1091 FILLER_0_13_79
*1092 FILLER_0_13_98
*1093 FILLER_0_14_113
*1094 FILLER_0_14_125
*1095 FILLER_0_14_133
*1096 FILLER_0_14_138
*1097 FILLER_0_14_141
*1098 FILLER_0_14_15
*1099 FILLER_0_14_151
*1100 FILLER_0_14_157
*1101 FILLER_0_14_162
*1102 FILLER_0_14_174
*1103 FILLER_0_14_194
*1104 FILLER_0_14_197
*1105 FILLER_0_14_209
*1106 FILLER_0_14_21
*1107 FILLER_0_14_221
*1108 FILLER_0_14_249
*1109 FILLER_0_14_257
*1110 FILLER_0_14_265
*1111 FILLER_0_14_27
*1112 FILLER_0_14_298
*1113 FILLER_0_14_3
*1114 FILLER_0_14_309
*1115 FILLER_0_14_334
*1116 FILLER_0_14_77
*1117 FILLER_0_14_83
*1118 FILLER_0_14_85
*1119 FILLER_0_14_93
*1120 FILLER_0_15_11
*1121 FILLER_0_15_113
*1122 FILLER_0_15_121
*1123 FILLER_0_15_129
*1124 FILLER_0_15_141
*1125 FILLER_0_15_159
*1126 FILLER_0_15_180
*1127 FILLER_0_15_192
*1128 FILLER_0_15_210
*1129 FILLER_0_15_222
*1130 FILLER_0_15_225
*1131 FILLER_0_15_233
*1132 FILLER_0_15_253
*1133 FILLER_0_15_277
*1134 FILLER_0_15_288
*1135 FILLER_0_15_3
*1136 FILLER_0_15_300
*1137 FILLER_0_15_325
*1138 FILLER_0_15_333
*1139 FILLER_0_15_46
*1140 FILLER_0_15_84
*1141 FILLER_0_15_92
*1142 FILLER_0_16_109
*1143 FILLER_0_16_113
*1144 FILLER_0_16_132
*1145 FILLER_0_16_146
*1146 FILLER_0_16_15
*1147 FILLER_0_16_156
*1148 FILLER_0_16_174
*1149 FILLER_0_16_182
*1150 FILLER_0_16_20
*1151 FILLER_0_16_216
*1152 FILLER_0_16_224
*1153 FILLER_0_16_230
*1154 FILLER_0_16_236
*1155 FILLER_0_16_262
*1156 FILLER_0_16_270
*1157 FILLER_0_16_283
*1158 FILLER_0_16_295
*1159 FILLER_0_16_3
*1160 FILLER_0_16_303
*1161 FILLER_0_16_322
*1162 FILLER_0_16_334
*1163 FILLER_0_16_38
*1164 FILLER_0_16_50
*1165 FILLER_0_16_58
*1166 FILLER_0_16_80
*1167 FILLER_0_16_92
*1168 FILLER_0_16_98
*1169 FILLER_0_17_106
*1170 FILLER_0_17_113
*1171 FILLER_0_17_136
*1172 FILLER_0_17_158
*1173 FILLER_0_17_162
*1174 FILLER_0_17_169
*1175 FILLER_0_17_181
*1176 FILLER_0_17_218
*1177 FILLER_0_17_225
*1178 FILLER_0_17_247
*1179 FILLER_0_17_251
*1180 FILLER_0_17_259
*1181 FILLER_0_17_267
*1182 FILLER_0_17_279
*1183 FILLER_0_17_284
*1184 FILLER_0_17_296
*1185 FILLER_0_17_3
*1186 FILLER_0_17_332
*1187 FILLER_0_17_35
*1188 FILLER_0_17_43
*1189 FILLER_0_17_57
*1190 FILLER_0_17_66
*1191 FILLER_0_17_78
*1192 FILLER_0_17_9
*1193 FILLER_0_17_90
*1194 FILLER_0_18_112
*1195 FILLER_0_18_117
*1196 FILLER_0_18_129
*1197 FILLER_0_18_137
*1198 FILLER_0_18_149
*1199 FILLER_0_18_163
*1200 FILLER_0_18_174
*1201 FILLER_0_18_186
*1202 FILLER_0_18_192
*1203 FILLER_0_18_197
*1204 FILLER_0_18_218
*1205 FILLER_0_18_230
*1206 FILLER_0_18_242
*1207 FILLER_0_18_25
*1208 FILLER_0_18_250
*1209 FILLER_0_18_253
*1210 FILLER_0_18_287
*1211 FILLER_0_18_29
*1212 FILLER_0_18_299
*1213 FILLER_0_18_3
*1214 FILLER_0_18_332
*1215 FILLER_0_18_48
*1216 FILLER_0_18_56
*1217 FILLER_0_18_71
*1218 FILLER_0_18_83
*1219 FILLER_0_18_85
*1220 FILLER_0_18_92
*1221 FILLER_0_19_101
*1222 FILLER_0_19_11
*1223 FILLER_0_19_119
*1224 FILLER_0_19_138
*1225 FILLER_0_19_146
*1226 FILLER_0_19_16
*1227 FILLER_0_19_185
*1228 FILLER_0_19_197
*1229 FILLER_0_19_217
*1230 FILLER_0_19_223
*1231 FILLER_0_19_225
*1232 FILLER_0_19_233
*1233 FILLER_0_19_240
*1234 FILLER_0_19_248
*1235 FILLER_0_19_256
*1236 FILLER_0_19_27
*1237 FILLER_0_19_278
*1238 FILLER_0_19_281
*1239 FILLER_0_19_293
*1240 FILLER_0_19_3
*1241 FILLER_0_19_301
*1242 FILLER_0_19_328
*1243 FILLER_0_19_334
*1244 FILLER_0_19_55
*1245 FILLER_0_19_57
*1246 FILLER_0_19_63
*1247 FILLER_0_19_75
*1248 FILLER_0_1_113
*1249 FILLER_0_1_121
*1250 FILLER_0_1_140
*1251 FILLER_0_1_15
*1252 FILLER_0_1_157
*1253 FILLER_0_1_165
*1254 FILLER_0_1_169
*1255 FILLER_0_1_181
*1256 FILLER_0_1_193
*1257 FILLER_0_1_205
*1258 FILLER_0_1_217
*1259 FILLER_0_1_223
*1260 FILLER_0_1_245
*1261 FILLER_0_1_267
*1262 FILLER_0_1_27
*1263 FILLER_0_1_271
*1264 FILLER_0_1_277
*1265 FILLER_0_1_3
*1266 FILLER_0_1_301
*1267 FILLER_0_1_313
*1268 FILLER_0_1_325
*1269 FILLER_0_1_333
*1270 FILLER_0_1_39
*1271 FILLER_0_1_51
*1272 FILLER_0_1_55
*1273 FILLER_0_1_57
*1274 FILLER_0_1_69
*1275 FILLER_0_1_90
*1276 FILLER_0_20_101
*1277 FILLER_0_20_107
*1278 FILLER_0_20_111
*1279 FILLER_0_20_122
*1280 FILLER_0_20_131
*1281 FILLER_0_20_135
*1282 FILLER_0_20_139
*1283 FILLER_0_20_15
*1284 FILLER_0_20_153
*1285 FILLER_0_20_157
*1286 FILLER_0_20_170
*1287 FILLER_0_20_174
*1288 FILLER_0_20_181
*1289 FILLER_0_20_188
*1290 FILLER_0_20_197
*1291 FILLER_0_20_201
*1292 FILLER_0_20_206
*1293 FILLER_0_20_218
*1294 FILLER_0_20_230
*1295 FILLER_0_20_253
*1296 FILLER_0_20_261
*1297 FILLER_0_20_268
*1298 FILLER_0_20_27
*1299 FILLER_0_20_29
*1300 FILLER_0_20_290
*1301 FILLER_0_20_3
*1302 FILLER_0_20_302
*1303 FILLER_0_20_313
*1304 FILLER_0_20_319
*1305 FILLER_0_20_326
*1306 FILLER_0_20_33
*1307 FILLER_0_20_334
*1308 FILLER_0_20_54
*1309 FILLER_0_20_66
*1310 FILLER_0_21_104
*1311 FILLER_0_21_113
*1312 FILLER_0_21_125
*1313 FILLER_0_21_148
*1314 FILLER_0_21_152
*1315 FILLER_0_21_16
*1316 FILLER_0_21_161
*1317 FILLER_0_21_167
*1318 FILLER_0_21_169
*1319 FILLER_0_21_175
*1320 FILLER_0_21_182
*1321 FILLER_0_21_213
*1322 FILLER_0_21_221
*1323 FILLER_0_21_225
*1324 FILLER_0_21_263
*1325 FILLER_0_21_275
*1326 FILLER_0_21_279
*1327 FILLER_0_21_281
*1328 FILLER_0_21_285
*1329 FILLER_0_21_289
*1330 FILLER_0_21_3
*1331 FILLER_0_21_316
*1332 FILLER_0_21_328
*1333 FILLER_0_21_334
*1334 FILLER_0_21_38
*1335 FILLER_0_21_48
*1336 FILLER_0_21_57
*1337 FILLER_0_21_69
*1338 FILLER_0_21_92
*1339 FILLER_0_22_101
*1340 FILLER_0_22_118
*1341 FILLER_0_22_130
*1342 FILLER_0_22_137
*1343 FILLER_0_22_164
*1344 FILLER_0_22_172
*1345 FILLER_0_22_195
*1346 FILLER_0_22_217
*1347 FILLER_0_22_225
*1348 FILLER_0_22_253
*1349 FILLER_0_22_257
*1350 FILLER_0_22_29
*1351 FILLER_0_22_298
*1352 FILLER_0_22_3
*1353 FILLER_0_22_306
*1354 FILLER_0_22_329
*1355 FILLER_0_22_37
*1356 FILLER_0_22_49
*1357 FILLER_0_22_73
*1358 FILLER_0_22_81
*1359 FILLER_0_22_85
*1360 FILLER_0_22_97
*1361 FILLER_0_23_131
*1362 FILLER_0_23_153
*1363 FILLER_0_23_165
*1364 FILLER_0_23_169
*1365 FILLER_0_23_203
*1366 FILLER_0_23_215
*1367 FILLER_0_23_223
*1368 FILLER_0_23_225
*1369 FILLER_0_23_252
*1370 FILLER_0_23_263
*1371 FILLER_0_23_269
*1372 FILLER_0_23_277
*1373 FILLER_0_23_288
*1374 FILLER_0_23_294
*1375 FILLER_0_23_3
*1376 FILLER_0_23_30
*1377 FILLER_0_23_329
*1378 FILLER_0_23_42
*1379 FILLER_0_23_78
*1380 FILLER_0_23_90
*1381 FILLER_0_23_98
*1382 FILLER_0_24_116
*1383 FILLER_0_24_132
*1384 FILLER_0_24_141
*1385 FILLER_0_24_15
*1386 FILLER_0_24_159
*1387 FILLER_0_24_175
*1388 FILLER_0_24_195
*1389 FILLER_0_24_197
*1390 FILLER_0_24_209
*1391 FILLER_0_24_238
*1392 FILLER_0_24_250
*1393 FILLER_0_24_253
*1394 FILLER_0_24_265
*1395 FILLER_0_24_277
*1396 FILLER_0_24_289
*1397 FILLER_0_24_3
*1398 FILLER_0_24_301
*1399 FILLER_0_24_307
*1400 FILLER_0_24_316
*1401 FILLER_0_24_328
*1402 FILLER_0_24_334
*1403 FILLER_0_24_42
*1404 FILLER_0_24_48
*1405 FILLER_0_24_52
*1406 FILLER_0_24_72
*1407 FILLER_0_24_92
*1408 FILLER_0_25_105
*1409 FILLER_0_25_111
*1410 FILLER_0_25_113
*1411 FILLER_0_25_125
*1412 FILLER_0_25_15
*1413 FILLER_0_25_166
*1414 FILLER_0_25_169
*1415 FILLER_0_25_185
*1416 FILLER_0_25_197
*1417 FILLER_0_25_209
*1418 FILLER_0_25_221
*1419 FILLER_0_25_225
*1420 FILLER_0_25_229
*1421 FILLER_0_25_238
*1422 FILLER_0_25_250
*1423 FILLER_0_25_262
*1424 FILLER_0_25_281
*1425 FILLER_0_25_3
*1426 FILLER_0_25_302
*1427 FILLER_0_25_329
*1428 FILLER_0_25_48
*1429 FILLER_0_25_57
*1430 FILLER_0_25_69
*1431 FILLER_0_25_81
*1432 FILLER_0_25_93
*1433 FILLER_0_26_100
*1434 FILLER_0_26_112
*1435 FILLER_0_26_124
*1436 FILLER_0_26_136
*1437 FILLER_0_26_141
*1438 FILLER_0_26_147
*1439 FILLER_0_26_15
*1440 FILLER_0_26_156
*1441 FILLER_0_26_166
*1442 FILLER_0_26_178
*1443 FILLER_0_26_186
*1444 FILLER_0_26_192
*1445 FILLER_0_26_197
*1446 FILLER_0_26_209
*1447 FILLER_0_26_22
*1448 FILLER_0_26_221
*1449 FILLER_0_26_250
*1450 FILLER_0_26_253
*1451 FILLER_0_26_259
*1452 FILLER_0_26_29
*1453 FILLER_0_26_3
*1454 FILLER_0_26_303
*1455 FILLER_0_26_41
*1456 FILLER_0_26_45
*1457 FILLER_0_26_55
*1458 FILLER_0_26_63
*1459 FILLER_0_26_73
*1460 FILLER_0_27_108
*1461 FILLER_0_27_113
*1462 FILLER_0_27_125
*1463 FILLER_0_27_137
*1464 FILLER_0_27_149
*1465 FILLER_0_27_15
*1466 FILLER_0_27_153
*1467 FILLER_0_27_159
*1468 FILLER_0_27_167
*1469 FILLER_0_27_169
*1470 FILLER_0_27_181
*1471 FILLER_0_27_185
*1472 FILLER_0_27_213
*1473 FILLER_0_27_250
*1474 FILLER_0_27_262
*1475 FILLER_0_27_27
*1476 FILLER_0_27_281
*1477 FILLER_0_27_295
*1478 FILLER_0_27_3
*1479 FILLER_0_27_303
*1480 FILLER_0_27_325
*1481 FILLER_0_27_333
*1482 FILLER_0_27_55
*1483 FILLER_0_27_64
*1484 FILLER_0_27_72
*1485 FILLER_0_27_98
*1486 FILLER_0_28_105
*1487 FILLER_0_28_109
*1488 FILLER_0_28_127
*1489 FILLER_0_28_133
*1490 FILLER_0_28_139
*1491 FILLER_0_28_141
*1492 FILLER_0_28_145
*1493 FILLER_0_28_161
*1494 FILLER_0_28_183
*1495 FILLER_0_28_195
*1496 FILLER_0_28_197
*1497 FILLER_0_28_203
*1498 FILLER_0_28_217
*1499 FILLER_0_28_249
*1500 FILLER_0_28_253
*1501 FILLER_0_28_265
*1502 FILLER_0_28_277
*1503 FILLER_0_28_289
*1504 FILLER_0_28_3
*1505 FILLER_0_28_301
*1506 FILLER_0_28_307
*1507 FILLER_0_28_315
*1508 FILLER_0_28_327
*1509 FILLER_0_28_48
*1510 FILLER_0_28_68
*1511 FILLER_0_28_76
*1512 FILLER_0_28_99
*1513 FILLER_0_29_102
*1514 FILLER_0_29_108
*1515 FILLER_0_29_140
*1516 FILLER_0_29_152
*1517 FILLER_0_29_169
*1518 FILLER_0_29_188
*1519 FILLER_0_29_199
*1520 FILLER_0_29_213
*1521 FILLER_0_29_221
*1522 FILLER_0_29_225
*1523 FILLER_0_29_237
*1524 FILLER_0_29_241
*1525 FILLER_0_29_248
*1526 FILLER_0_29_260
*1527 FILLER_0_29_268
*1528 FILLER_0_29_274
*1529 FILLER_0_29_286
*1530 FILLER_0_29_298
*1531 FILLER_0_29_3
*1532 FILLER_0_29_52
*1533 FILLER_0_29_57
*1534 FILLER_0_29_73
*1535 FILLER_0_29_90
*1536 FILLER_0_2_135
*1537 FILLER_0_2_139
*1538 FILLER_0_2_141
*1539 FILLER_0_2_148
*1540 FILLER_0_2_15
*1541 FILLER_0_2_160
*1542 FILLER_0_2_172
*1543 FILLER_0_2_184
*1544 FILLER_0_2_197
*1545 FILLER_0_2_209
*1546 FILLER_0_2_215
*1547 FILLER_0_2_258
*1548 FILLER_0_2_264
*1549 FILLER_0_2_27
*1550 FILLER_0_2_29
*1551 FILLER_0_2_296
*1552 FILLER_0_2_3
*1553 FILLER_0_2_309
*1554 FILLER_0_2_321
*1555 FILLER_0_2_333
*1556 FILLER_0_2_41
*1557 FILLER_0_2_45
*1558 FILLER_0_2_62
*1559 FILLER_0_30_11
*1560 FILLER_0_30_111
*1561 FILLER_0_30_123
*1562 FILLER_0_30_141
*1563 FILLER_0_30_152
*1564 FILLER_0_30_16
*1565 FILLER_0_30_160
*1566 FILLER_0_30_168
*1567 FILLER_0_30_183
*1568 FILLER_0_30_195
*1569 FILLER_0_30_219
*1570 FILLER_0_30_231
*1571 FILLER_0_30_243
*1572 FILLER_0_30_251
*1573 FILLER_0_30_253
*1574 FILLER_0_30_3
*1575 FILLER_0_30_41
*1576 FILLER_0_30_47
*1577 FILLER_0_30_99
*1578 FILLER_0_31_104
*1579 FILLER_0_31_113
*1580 FILLER_0_31_125
*1581 FILLER_0_31_142
*1582 FILLER_0_31_15
*1583 FILLER_0_31_154
*1584 FILLER_0_31_166
*1585 FILLER_0_31_169
*1586 FILLER_0_31_181
*1587 FILLER_0_31_223
*1588 FILLER_0_31_246
*1589 FILLER_0_31_254
*1590 FILLER_0_31_297
*1591 FILLER_0_31_3
*1592 FILLER_0_31_30
*1593 FILLER_0_31_333
*1594 FILLER_0_31_45
*1595 FILLER_0_31_53
*1596 FILLER_0_31_57
*1597 FILLER_0_31_92
*1598 FILLER_0_32_109
*1599 FILLER_0_32_126
*1600 FILLER_0_32_146
*1601 FILLER_0_32_15
*1602 FILLER_0_32_151
*1603 FILLER_0_32_157
*1604 FILLER_0_32_170
*1605 FILLER_0_32_175
*1606 FILLER_0_32_184
*1607 FILLER_0_32_19
*1608 FILLER_0_32_197
*1609 FILLER_0_32_214
*1610 FILLER_0_32_226
*1611 FILLER_0_32_238
*1612 FILLER_0_32_250
*1613 FILLER_0_32_253
*1614 FILLER_0_32_27
*1615 FILLER_0_32_3
*1616 FILLER_0_32_300
*1617 FILLER_0_32_309
*1618 FILLER_0_32_318
*1619 FILLER_0_32_333
*1620 FILLER_0_32_38
*1621 FILLER_0_32_44
*1622 FILLER_0_32_56
*1623 FILLER_0_32_61
*1624 FILLER_0_32_74
*1625 FILLER_0_32_82
*1626 FILLER_0_32_85
*1627 FILLER_0_32_97
*1628 FILLER_0_33_109
*1629 FILLER_0_33_132
*1630 FILLER_0_33_148