*SPEF "ieee 1481-1999"
*DESIGN "tt_um_iron_violet_simon"
*DATE "12:36:26 Friday April 19, 2024"
*VENDOR "The OpenROAD Project"
*PROGRAM "OpenROAD"
*VERSION "0889970d1790a2617e69f253221b8bd7626e51dc"
*DESIGN_FLOW "NAME_SCOPE LOCAL" "PIN_CAP NONE"
*DIVIDER /
*DELIMITER :
*BUS_DELIMITER []
*T_UNIT 1 NS
*C_UNIT 1 PF
*R_UNIT 1 OHM
*L_UNIT 1 HENRY

*NAME_MAP
*3 clk
*4 ena
*5 rst_n
*6 ui_in[0]
*7 ui_in[1]
*8 ui_in[2]
*9 ui_in[3]
*10 ui_in[4]
*11 ui_in[5]
*12 ui_in[6]
*13 ui_in[7]
*14 uio_in[0]
*15 uio_in[1]
*16 uio_in[2]
*17 uio_in[3]
*18 uio_in[4]
*19 uio_in[5]
*20 uio_in[6]
*21 uio_in[7]
*22 net40
*23 net41
*24 net42
*25 net43
*26 net44
*27 net45
*28 net46
*29 net47
*30 net48
*31 net49
*32 net50
*33 net51
*34 net52
*35 net53
*36 net54
*37 net55
*38 uo_out[0]
*39 uo_out[1]
*40 uo_out[2]
*41 uo_out[3]
*42 net56
*43 net57
*44 net58
*45 net59
*46 _0000_
*47 _0001_
*48 _0002_
*49 _0003_
*50 _0004_
*51 _0005_
*52 _0006_
*53 _0007_
*54 _0008_
*55 _0009_
*56 _0010_
*57 _0011_
*58 _0012_
*59 _0013_
*60 _0014_
*61 _0015_
*62 _0016_
*63 _0017_
*64 _0018_
*65 _0019_
*66 _0020_
*67 _0021_
*68 _0022_
*69 _0023_
*70 _0024_
*71 _0025_
*72 _0026_
*73 _0027_
*74 _0028_
*75 _0029_
*76 _0030_
*77 _0031_
*78 _0032_
*79 _0033_
*80 _0034_
*81 _0035_
*82 _0036_
*83 _0037_
*84 _0038_
*85 _0039_
*86 _0040_
*87 _0041_
*88 _0042_
*89 _0043_
*90 _0044_
*91 _0045_
*92 _0046_
*93 _0047_
*94 _0048_
*95 _0049_
*96 _0050_
*97 _0051_
*98 _0052_
*99 _0053_
*100 _0054_
*101 _0055_
*102 _0056_
*103 _0057_
*104 _0058_
*105 _0059_
*106 _0060_
*107 _0061_
*108 _0062_
*109 _0063_
*110 _0064_
*111 _0065_
*112 _0066_
*113 _0067_
*114 _0068_
*115 _0069_
*116 _0070_
*117 _0071_
*118 _0072_
*119 _0073_
*120 _0074_
*121 _0075_
*122 _0076_
*123 _0077_
*124 _0078_
*125 _0079_
*126 _0080_
*127 _0081_
*128 _0082_
*129 _0083_
*130 _0084_
*131 _0085_
*132 _0086_
*133 _0087_
*134 _0088_
*135 _0089_
*136 _0090_
*137 _0091_
*138 _0092_
*139 _0093_
*140 _0094_
*141 _0095_
*142 _0096_
*143 _0097_
*144 _0098_
*145 _0099_
*146 _0100_
*147 _0101_
*148 _0102_
*149 _0103_
*150 _0104_
*151 _0105_
*152 _0106_
*153 _0107_
*154 _0108_
*155 _0109_
*156 _0110_
*157 _0111_
*158 _0112_
*159 _0113_
*160 _0114_
*161 _0115_
*162 _0116_
*163 _0117_
*164 _0118_
*165 _0119_
*166 _0120_
*167 _0121_
*168 _0122_
*169 _0123_
*170 _0124_
*171 _0125_
*172 _0126_
*173 _0127_
*174 _0128_
*175 _0129_
*176 _0130_
*177 _0131_
*178 _0132_
*179 _0133_
*180 _0134_
*181 _0135_
*182 _0136_
*183 _0137_
*184 _0138_
*185 _0139_
*186 _0140_
*187 _0141_
*188 _0142_
*189 _0143_
*190 _0144_
*191 _0145_
*192 _0146_
*193 _0147_
*194 _0148_
*195 _0149_
*196 _0150_
*197 _0151_
*198 _0152_
*199 _0153_
*200 _0154_
*201 _0155_
*202 _0156_
*203 _0157_
*204 _0158_
*205 _0159_
*206 _0160_
*207 _0161_
*208 _0162_
*209 _0163_
*210 _0164_
*211 _0165_
*212 _0166_
*213 _0167_
*214 _0168_
*215 _0169_
*216 _0170_
*217 _0171_
*218 _0172_
*219 _0173_
*220 _0174_
*221 _0175_
*222 _0176_
*223 _0177_
*224 _0178_
*225 _0179_
*226 _0180_
*227 _0181_
*228 _0182_
*229 _0183_
*230 _0184_
*231 _0185_
*232 _0186_
*233 _0187_
*234 _0188_
*235 _0189_
*236 _0190_
*237 _0191_
*238 _0192_
*239 _0193_
*240 _0194_
*241 _0195_
*242 _0196_
*243 _0197_
*244 _0198_
*245 _0199_
*246 _0200_
*247 _0201_
*248 _0202_
*249 _0203_
*250 _0204_
*251 _0205_
*252 _0206_
*253 _0207_
*254 _0208_
*255 _0209_
*256 _0210_
*257 _0211_
*258 _0212_
*259 _0213_
*260 _0214_
*261 _0215_
*262 _0216_
*263 _0217_
*264 _0218_
*265 _0219_
*266 _0220_
*267 _0221_
*268 _0222_
*269 _0223_
*270 _0224_
*271 _0225_
*272 _0226_
*273 _0227_
*274 _0228_
*275 _0229_
*276 _0230_
*277 _0231_
*278 _0232_
*279 _0233_
*280 _0234_
*281 _0235_
*282 _0236_
*283 _0237_
*284 _0238_
*285 _0239_
*286 _0240_
*287 _0241_
*288 _0242_
*289 _0243_
*290 _0244_
*291 _0245_
*292 _0246_
*293 _0247_
*294 _0248_
*295 _0249_
*296 _0250_
*297 _0251_
*298 _0252_
*299 _0253_
*300 _0254_
*301 _0255_
*302 _0256_
*303 _0257_
*304 _0258_
*305 _0259_
*306 _0260_
*307 _0261_
*308 _0262_
*309 _0263_
*310 _0264_
*311 _0265_
*312 _0266_
*313 _0267_
*314 _0268_
*315 _0269_
*316 _0270_
*317 _0271_
*318 _0272_
*319 _0273_
*320 _0274_
*321 _0275_
*322 _0276_
*323 _0277_
*324 _0278_
*325 _0279_
*326 _0280_
*327 _0281_
*328 _0282_
*329 _0283_
*330 _0284_
*331 _0285_
*332 _0286_
*333 _0287_
*334 _0288_
*335 _0289_
*336 _0290_
*337 _0291_
*338 _0292_
*339 _0293_
*340 _0294_
*341 _0295_
*342 _0296_
*343 _0297_
*344 _0298_
*345 _0299_
*346 _0300_
*347 _0301_
*348 _0302_
*349 _0303_
*350 _0304_
*351 _0305_
*352 _0306_
*353 _0307_
*354 _0308_
*355 _0309_
*356 _0310_
*357 _0311_
*358 _0312_
*359 _0313_
*360 _0314_
*361 _0315_
*362 _0316_
*363 _0317_
*364 _0318_
*365 _0319_
*366 _0320_
*367 _0321_
*368 _0322_
*369 _0323_
*370 _0324_
*371 _0325_
*372 _0326_
*373 _0327_
*374 _0328_
*375 _0329_
*376 _0330_
*377 _0331_
*378 _0332_
*379 _0333_
*380 _0334_
*381 _0335_
*382 _0336_
*383 _0337_
*384 _0338_
*385 _0339_
*386 _0340_
*387 _0341_
*388 _0342_
*389 _0343_
*390 _0344_
*391 _0345_
*392 _0346_
*393 _0347_
*394 _0348_
*395 _0349_
*396 _0350_
*397 _0351_
*398 _0352_
*399 _0353_
*400 _0354_
*401 _0355_
*402 _0356_
*403 _0357_
*404 _0358_
*405 _0359_
*406 _0360_
*407 _0361_
*408 _0362_
*409 _0363_
*410 _0364_
*411 _0365_
*412 _0366_
*413 _0367_
*414 _0368_
*415 _0369_
*416 _0370_
*417 _0371_
*418 _0372_
*419 _0373_
*420 _0374_
*421 _0375_
*422 _0376_
*423 _0377_
*424 _0378_
*425 _0379_
*426 _0380_
*427 _0381_
*428 _0382_
*429 _0383_
*430 _0384_
*431 _0385_
*432 _0386_
*433 _0387_
*434 _0388_
*435 _0389_
*436 _0390_
*437 _0391_
*438 _0392_
*439 _0393_
*440 _0394_
*441 _0395_
*442 _0396_
*443 _0397_
*444 _0398_
*445 _0399_
*446 _0400_
*447 _0401_
*448 _0402_
*449 _0403_
*450 _0404_
*451 _0405_
*452 _0406_
*453 _0407_
*454 _0408_
*455 _0409_
*456 _0410_
*457 _0411_
*458 _0412_
*459 _0413_
*460 _0414_
*461 _0415_
*462 _0416_
*463 _0417_
*464 _0418_
*465 _0419_
*466 _0420_
*467 _0421_
*468 _0422_
*469 _0423_
*470 _0424_
*471 _0425_
*472 _0426_
*473 _0427_
*474 _0428_
*475 _0429_
*476 _0430_
*477 _0431_
*478 _0432_
*479 _0433_
*480 _0434_
*481 _0435_
*482 _0436_
*483 _0437_
*484 _0438_
*485 _0439_
*486 _0440_
*487 _0441_
*488 _0442_
*489 _0443_
*490 _0444_
*491 _0445_
*492 _0446_
*493 _0447_
*494 _0448_
*495 _0449_
*496 _0450_
*497 _0451_
*498 _0452_
*499 _0453_
*500 _0454_
*501 _0455_
*502 _0456_
*503 _0457_
*504 _0458_
*505 _0459_
*506 _0460_
*507 _0461_
*508 _0462_
*509 _0463_
*510 _0464_
*511 _0465_
*512 _0466_
*513 _0467_
*514 _0468_
*515 _0469_
*516 _0470_
*517 _0471_
*518 _0472_
*519 _0473_
*520 _0474_
*521 _0475_
*522 _0476_
*523 _0477_
*524 _0478_
*525 _0479_
*526 _0480_
*527 _0481_
*528 _0482_
*529 _0483_
*530 _0484_
*531 _0485_
*532 _0486_
*533 _0487_
*534 _0488_
*535 _0489_
*536 _0490_
*537 _0491_
*538 _0492_
*539 _0493_
*540 _0494_
*541 _0495_
*542 _0496_
*543 _0497_
*544 _0498_
*545 _0499_
*546 _0500_
*547 _0501_
*548 _0502_
*549 _0503_
*550 _0504_
*551 _0505_
*552 _0506_
*553 _0507_
*554 _0508_
*555 _0509_
*556 _0510_
*557 _0511_
*558 _0512_
*559 _0513_
*560 _0514_
*561 _0515_
*562 _0516_
*563 _0517_
*564 _0518_
*565 _0519_
*566 _0520_
*567 _0521_
*568 _0522_
*569 _0523_
*570 _0524_
*571 _0525_
*572 _0526_
*573 _0527_
*574 _0528_
*575 _0529_
*576 _0530_
*577 _0531_
*578 _0532_
*579 _0533_
*580 _0534_
*581 _0535_
*582 _0536_
*583 _0537_
*584 _0538_
*585 _0539_
*586 _0540_
*587 _0541_
*588 _0542_
*589 _0543_
*590 _0544_
*591 _0545_
*592 _0546_
*593 _0547_
*594 _0548_
*595 _0549_
*596 _0550_
*597 _0551_
*598 _0552_
*599 _0553_
*600 _0554_
*601 _0555_
*602 _0556_
*603 _0557_
*604 _0558_
*605 _0559_
*606 _0560_
*607 _0561_
*608 _0562_
*609 _0563_
*610 _0564_
*611 _0565_
*612 _0566_
*613 _0567_
*614 _0568_
*615 _0569_
*616 _0570_
*617 _0571_
*618 _0572_
*619 _0573_
*620 _0574_
*621 _0575_
*622 _0576_
*623 _0577_
*624 _0578_
*625 _0579_
*626 _0580_
*627 _0581_
*628 _0582_
*629 _0583_
*630 _0584_
*631 _0585_
*632 _0586_
*633 _0587_
*634 _0588_
*635 _0589_
*636 _0590_
*637 _0591_
*638 _0592_
*639 _0593_
*640 _0594_
*641 _0595_
*642 _0596_
*643 _0597_
*644 _0598_
*645 _0599_
*646 _0600_
*647 _0601_
*648 _0602_
*649 _0603_
*650 _0604_
*651 _0605_
*652 _0606_
*653 _0607_
*654 _0608_
*655 _0609_
*656 _0610_
*657 _0611_
*658 _0612_
*659 _0613_
*660 _0614_
*661 _0615_
*662 _0616_
*663 _0617_
*664 _0618_
*665 _0619_
*666 _0620_
*667 _0621_
*668 _0622_
*669 _0623_
*670 _0624_
*671 _0625_
*672 _0626_
*673 _0627_
*674 _0628_
*675 _0629_
*676 _0630_
*677 _0631_
*678 _0632_
*679 _0633_
*680 _0634_
*681 _0635_
*682 _0636_
*683 _0637_
*684 _0638_
*685 _0639_
*686 _0640_
*687 _0641_
*688 _0642_
*689 _0643_
*690 _0644_
*691 _0645_
*692 _0646_
*693 _0647_
*694 _0648_
*695 _0649_
*696 _0650_
*697 _0651_
*698 _0652_
*699 _0653_
*700 _0654_
*701 _0655_
*702 _0656_
*703 _0657_
*704 _0658_
*705 _0659_
*706 _0660_
*707 _0661_
*708 _0662_
*709 _0663_
*710 _0664_
*711 _0665_
*712 _0666_
*713 _0667_
*714 _0668_
*715 _0669_
*716 _0670_
*717 _0671_
*718 _0672_
*719 _0673_
*720 _0674_
*721 _0675_
*722 _0676_
*723 _0677_
*724 _0678_
*725 _0679_
*726 _0680_
*727 _0681_
*728 _0682_
*729 _0683_
*730 _0684_
*731 _0685_
*732 _0686_
*733 _0687_
*734 _0688_
*735 _0689_
*736 _0690_
*737 _0691_
*738 _0692_
*739 _0693_
*740 _0694_
*741 _0695_
*742 _0696_
*743 _0697_
*744 _0698_
*745 _0699_
*746 _0700_
*747 _0701_
*748 _0702_
*749 _0703_
*750 _0704_
*751 _0705_
*752 _0706_
*753 _0707_
*754 _0708_
*755 _0709_
*756 _0710_
*757 _0711_
*758 _0712_
*759 _0713_
*760 _0714_
*761 _0715_
*762 _0716_
*763 clk_div_u1\.CLK_OUT
*764 clk_div_u1\.cntr\[0\]
*765 clk_div_u1\.cntr\[10\]
*766 clk_div_u1\.cntr\[11\]
*767 clk_div_u1\.cntr\[12\]
*768 clk_div_u1\.cntr\[1\]
*769 clk_div_u1\.cntr\[2\]
*770 clk_div_u1\.cntr\[3\]
*771 clk_div_u1\.cntr\[4\]
*772 clk_div_u1\.cntr\[5\]
*773 clk_div_u1\.cntr\[6\]
*774 clk_div_u1\.cntr\[7\]
*775 clk_div_u1\.cntr\[8\]
*776 clk_div_u1\.cntr\[9\]
*777 clknet_0_clk
*778 clknet_1_0__leaf_clk
*779 clknet_1_1__leaf_clk
*780 controller_u1\.IN\[0\]
*781 controller_u1\.IN\[1\]
*782 controller_u1\.IN_VALID
*783 controller_u1\.OUT\[0\]
*784 controller_u1\.OUT\[1\]
*785 controller_u1\.OUT_ENA
*786 controller_u1\.RAND\[0\]
*787 controller_u1\.RAND\[1\]
*788 controller_u1\.clr_turn
*789 controller_u1\.cnt\[0\]
*790 controller_u1\.cnt\[1\]
*791 controller_u1\.cnt\[2\]
*792 controller_u1\.cnt\[3\]
*793 controller_u1\.cnt\[4\]
*794 controller_u1\.go_turn
*795 controller_u1\.good_hold
*796 controller_u1\.high_score\[0\]
*797 controller_u1\.high_score\[1\]
*798 controller_u1\.high_score\[2\]
*799 controller_u1\.high_score\[3\]
*800 controller_u1\.high_score\[4\]
*801 controller_u1\.i\[0\]
*802 controller_u1\.i\[1\]
*803 controller_u1\.i\[2\]
*804 controller_u1\.i\[3\]
*805 controller_u1\.i\[4\]
*806 controller_u1\.last_color
*807 controller_u1\.stack\[0\]\[0\]
*808 controller_u1\.stack\[0\]\[1\]
*809 controller_u1\.stack\[10\]\[0\]
*810 controller_u1\.stack\[10\]\[1\]
*811 controller_u1\.stack\[11\]\[0\]
*812 controller_u1\.stack\[11\]\[1\]
*813 controller_u1\.stack\[12\]\[0\]
*814 controller_u1\.stack\[12\]\[1\]
*815 controller_u1\.stack\[13\]\[0\]
*816 controller_u1\.stack\[13\]\[1\]
*817 controller_u1\.stack\[14\]\[0\]
*818 controller_u1\.stack\[14\]\[1\]
*819 controller_u1\.stack\[15\]\[0\]
*820 controller_u1\.stack\[15\]\[1\]
*821 controller_u1\.stack\[16\]\[0\]
*822 controller_u1\.stack\[16\]\[1\]
*823 controller_u1\.stack\[17\]\[0\]
*824 controller_u1\.stack\[17\]\[1\]
*825 controller_u1\.stack\[18\]\[0\]
*826 controller_u1\.stack\[18\]\[1\]
*827 controller_u1\.stack\[19\]\[0\]
*828 controller_u1\.stack\[19\]\[1\]
*829 controller_u1\.stack\[1\]\[0\]
*830 controller_u1\.stack\[1\]\[1\]
*831 controller_u1\.stack\[20\]\[0\]
*832 controller_u1\.stack\[20\]\[1\]
*833 controller_u1\.stack\[21\]\[0\]
*834 controller_u1\.stack\[21\]\[1\]
*835 controller_u1\.stack\[22\]\[0\]
*836 controller_u1\.stack\[22\]\[1\]
*837 controller_u1\.stack\[23\]\[0\]
*838 controller_u1\.stack\[23\]\[1\]
*839 controller_u1\.stack\[24\]\[0\]
*840 controller_u1\.stack\[24\]\[1\]
*841 controller_u1\.stack\[25\]\[0\]
*842 controller_u1\.stack\[25\]\[1\]
*843 controller_u1\.stack\[26\]\[0\]
*844 controller_u1\.stack\[26\]\[1\]
*845 controller_u1\.stack\[27\]\[0\]
*846 controller_u1\.stack\[27\]\[1\]
*847 controller_u1\.stack\[28\]\[0\]
*848 controller_u1\.stack\[28\]\[1\]
*849 controller_u1\.stack\[29\]\[0\]
*850 controller_u1\.stack\[29\]\[1\]
*851 controller_u1\.stack\[2\]\[0\]
*852 controller_u1\.stack\[2\]\[1\]
*853 controller_u1\.stack\[31\]\[0\]
*854 controller_u1\.stack\[31\]\[1\]
*855 controller_u1\.stack\[3\]\[0\]
*856 controller_u1\.stack\[3\]\[1\]
*857 controller_u1\.stack\[4\]\[0\]
*858 controller_u1\.stack\[4\]\[1\]
*859 controller_u1\.stack\[5\]\[0\]
*860 controller_u1\.stack\[5\]\[1\]
*861 controller_u1\.stack\[6\]\[0\]
*862 controller_u1\.stack\[6\]\[1\]
*863 controller_u1\.stack\[7\]\[0\]
*864 controller_u1\.stack\[7\]\[1\]
*865 controller_u1\.stack\[8\]\[0\]
*866 controller_u1\.stack\[8\]\[1\]
*867 controller_u1\.stack\[9\]\[0\]
*868 controller_u1\.stack\[9\]\[1\]
*869 controller_u1\.state\[0\]
*870 controller_u1\.state\[1\]
*871 controller_u1\.state\[2\]
*872 controller_u1\.state\[3\]
*873 controller_u1\.state\[4\]
*874 controller_u1\.timeout_turn
*875 controller_u1\.timer_count\[10\]
*876 controller_u1\.timer_count\[11\]
*877 controller_u1\.timer_count\[12\]
*878 controller_u1\.timer_count\[14\]
*879 controller_u1\.timer_count\[6\]
*880 controller_u1\.timer_count\[7\]
*881 controller_u1\.timer_count\[8\]
*882 controller_u1\.timer_count\[9\]
*883 controller_u1\.turn_timer_u1\.compare\[10\]
*884 controller_u1\.turn_timer_u1\.compare\[11\]
*885 controller_u1\.turn_timer_u1\.compare\[12\]
*886 controller_u1\.turn_timer_u1\.compare\[14\]
*887 controller_u1\.turn_timer_u1\.compare\[6\]
*888 controller_u1\.turn_timer_u1\.compare\[7\]
*889 controller_u1\.turn_timer_u1\.compare\[8\]
*890 controller_u1\.turn_timer_u1\.compare\[9\]
*891 controller_u1\.turn_timer_u1\.counter\[0\]
*892 controller_u1\.turn_timer_u1\.counter\[10\]
*893 controller_u1\.turn_timer_u1\.counter\[11\]
*894 controller_u1\.turn_timer_u1\.counter\[12\]
*895 controller_u1\.turn_timer_u1\.counter\[13\]
*896 controller_u1\.turn_timer_u1\.counter\[14\]
*897 controller_u1\.turn_timer_u1\.counter\[15\]
*898 controller_u1\.turn_timer_u1\.counter\[16\]
*899 controller_u1\.turn_timer_u1\.counter\[17\]
*900 controller_u1\.turn_timer_u1\.counter\[18\]
*901 controller_u1\.turn_timer_u1\.counter\[19\]
*902 controller_u1\.turn_timer_u1\.counter\[1\]
*903 controller_u1\.turn_timer_u1\.counter\[20\]
*904 controller_u1\.turn_timer_u1\.counter\[21\]
*905 controller_u1\.turn_timer_u1\.counter\[22\]
*906 controller_u1\.turn_timer_u1\.counter\[23\]
*907 controller_u1\.turn_timer_u1\.counter\[24\]
*908 controller_u1\.turn_timer_u1\.counter\[2\]
*909 controller_u1\.turn_timer_u1\.counter\[3\]
*910 controller_u1\.turn_timer_u1\.counter\[4\]
*911 controller_u1\.turn_timer_u1\.counter\[5\]
*912 controller_u1\.turn_timer_u1\.counter\[6\]
*913 controller_u1\.turn_timer_u1\.counter\[7\]
*914 controller_u1\.turn_timer_u1\.counter\[8\]
*915 controller_u1\.turn_timer_u1\.counter\[9\]
*916 controller_u1\.turn_timer_u1\.state\[0\]
*917 controller_u1\.turn_timer_u1\.state\[1\]
*918 net1
*919 net10
*920 net11
*921 net12
*922 net13
*923 net14
*924 net15
*925 net16
*926 net17
*927 net18
*928 net19
*929 net2
*930 net20
*931 net21
*932 net22
*933 net23
*934 net24
*935 net25
*936 net26
*937 net27
*938 net28
*939 net29
*940 net3
*941 net30
*942 net31
*943 net32
*944 net33
*945 net34
*946 net35
*947 net36
*948 net37
*949 net38
*950 net39
*951 net4
*952 net5
*953 net6
*954 net60
*955 net61
*956 net62
*957 net63
*958 net64
*959 net65
*960 net66
*961 net67
*962 net68
*963 net69
*964 net7
*965 net70
*966 net8
*967 net9
*968 ANTENNA_1
*969 FILLER_0_0_109
*970 FILLER_0_0_122
*971 FILLER_0_0_134
*972 FILLER_0_0_141
*973 FILLER_0_0_15
*974 FILLER_0_0_153
*975 FILLER_0_0_167
*976 FILLER_0_0_169
*977 FILLER_0_0_181
*978 FILLER_0_0_193
*979 FILLER_0_0_197
*980 FILLER_0_0_209
*981 FILLER_0_0_221
*982 FILLER_0_0_225
*983 FILLER_0_0_237
*984 FILLER_0_0_249
*985 FILLER_0_0_253
*986 FILLER_0_0_262
*987 FILLER_0_0_27
*988 FILLER_0_0_274
*989 FILLER_0_0_281
*990 FILLER_0_0_289
*991 FILLER_0_0_29
*992 FILLER_0_0_295
*993 FILLER_0_0_3
*994 FILLER_0_0_307
*995 FILLER_0_0_309
*996 FILLER_0_0_321
*997 FILLER_0_0_333
*998 FILLER_0_0_41
*999 FILLER_0_0_53
*1000 FILLER_0_0_57
*1001 FILLER_0_0_69
*1002 FILLER_0_0_81
*1003 FILLER_0_0_85
*1004 FILLER_0_0_97
*1005 FILLER_0_10_139
*1006 FILLER_0_10_141
*1007 FILLER_0_10_149
*1008 FILLER_0_10_15
*1009 FILLER_0_10_158
*1010 FILLER_0_10_170
*1011 FILLER_0_10_178
*1012 FILLER_0_10_193
*1013 FILLER_0_10_213
*1014 FILLER_0_10_225
*1015 FILLER_0_10_23
*1016 FILLER_0_10_234
*1017 FILLER_0_10_242
*1018 FILLER_0_10_253
*1019 FILLER_0_10_266
*1020 FILLER_0_10_274
*1021 FILLER_0_10_3
*1022 FILLER_0_10_306
*1023 FILLER_0_10_309
*1024 FILLER_0_10_324
*1025 FILLER_0_10_332
*1026 FILLER_0_10_54
*1027 FILLER_0_10_94
*1028 FILLER_0_11_104
*1029 FILLER_0_11_113
*1030 FILLER_0_11_124
*1031 FILLER_0_11_15
*1032 FILLER_0_11_169
*1033 FILLER_0_11_175
*1034 FILLER_0_11_211
*1035 FILLER_0_11_223
*1036 FILLER_0_11_245
*1037 FILLER_0_11_27
*1038 FILLER_0_11_279
*1039 FILLER_0_11_281
*1040 FILLER_0_11_289
*1041 FILLER_0_11_293
*1042 FILLER_0_11_3
*1043 FILLER_0_11_305
*1044 FILLER_0_11_31
*1045 FILLER_0_11_317
*1046 FILLER_0_11_329
*1047 FILLER_0_11_46
*1048 FILLER_0_11_52
*1049 FILLER_0_11_57
*1050 FILLER_0_11_71
*1051 FILLER_0_11_86
*1052 FILLER_0_11_97
*1053 FILLER_0_12_109
*1054 FILLER_0_12_122
*1055 FILLER_0_12_139
*1056 FILLER_0_12_141
*1057 FILLER_0_12_154
*1058 FILLER_0_12_168
*1059 FILLER_0_12_176
*1060 FILLER_0_12_191
*1061 FILLER_0_12_195
*1062 FILLER_0_12_215
*1063 FILLER_0_12_22
*1064 FILLER_0_12_241
*1065 FILLER_0_12_249
*1066 FILLER_0_12_264
*1067 FILLER_0_12_272
*1068 FILLER_0_12_284
*1069 FILLER_0_12_29
*1070 FILLER_0_12_296
*1071 FILLER_0_12_3
*1072 FILLER_0_12_312
*1073 FILLER_0_12_33
*1074 FILLER_0_12_334
*1075 FILLER_0_12_46
*1076 FILLER_0_12_58
*1077 FILLER_0_12_66
*1078 FILLER_0_12_83
*1079 FILLER_0_13_101
*1080 FILLER_0_13_109
*1081 FILLER_0_13_123
*1082 FILLER_0_13_135
*1083 FILLER_0_13_147
*1084 FILLER_0_13_155
*1085 FILLER_0_13_160
*1086 FILLER_0_13_169
*1087 FILLER_0_13_181
*1088 FILLER_0_13_189
*1089 FILLER_0_13_210
*1090 FILLER_0_13_222
*1091 FILLER_0_13_225
*1092 FILLER_0_13_229
*1093 FILLER_0_13_233
*1094 FILLER_0_13_237
*1095 FILLER_0_13_257
*1096 FILLER_0_13_269
*1097 FILLER_0_13_277
*1098 FILLER_0_13_281
*1099 FILLER_0_13_289
*1100 FILLER_0_13_298
*1101 FILLER_0_13_3
*1102 FILLER_0_13_306
*1103 FILLER_0_13_32
*1104 FILLER_0_13_333
*1105 FILLER_0_13_36
*1106 FILLER_0_13_42
*1107 FILLER_0_13_54
*1108 FILLER_0_13_60
*1109 FILLER_0_13_72
*1110 FILLER_0_13_82
*1111 FILLER_0_13_89
*1112 FILLER_0_14_103
*1113 FILLER_0_14_11
*1114 FILLER_0_14_120
*1115 FILLER_0_14_128
*1116 FILLER_0_14_137
*1117 FILLER_0_14_141
*1118 FILLER_0_14_16
*1119 FILLER_0_14_172
*1120 FILLER_0_14_184
*1121 FILLER_0_14_197
*1122 FILLER_0_14_209
*1123 FILLER_0_14_221
*1124 FILLER_0_14_233
*1125 FILLER_0_14_245
*1126 FILLER_0_14_253
*1127 FILLER_0_14_257
*1128 FILLER_0_14_27
*1129 FILLER_0_14_285
*1130 FILLER_0_14_29
*1131 FILLER_0_14_298
*1132 FILLER_0_14_3
*1133 FILLER_0_14_306
*1134 FILLER_0_14_322
*1135 FILLER_0_14_334
*1136 FILLER_0_14_35
*1137 FILLER_0_14_57
*1138 FILLER_0_14_69
*1139 FILLER_0_14_81
*1140 FILLER_0_14_91
*1141 FILLER_0_15_111
*1142 FILLER_0_15_118
*1143 FILLER_0_15_132
*1144 FILLER_0_15_144
*1145 FILLER_0_15_15
*1146 FILLER_0_15_178
*1147 FILLER_0_15_186
*1148 FILLER_0_15_209
*1149 FILLER_0_15_221
*1150 FILLER_0_15_225
*1151 FILLER_0_15_237
*1152 FILLER_0_15_245
*1153 FILLER_0_15_27
*1154 FILLER_0_15_279
*1155 FILLER_0_15_281
*1156 FILLER_0_15_293
*1157 FILLER_0_15_3
*1158 FILLER_0_15_305
*1159 FILLER_0_15_311
*1160 FILLER_0_15_324
*1161 FILLER_0_15_332
*1162 FILLER_0_15_54
*1163 FILLER_0_15_57
*1164 FILLER_0_15_69
*1165 FILLER_0_15_75
*1166 FILLER_0_15_93
*1167 FILLER_0_16_120
*1168 FILLER_0_16_134
*1169 FILLER_0_16_151
*1170 FILLER_0_16_170
*1171 FILLER_0_16_182
*1172 FILLER_0_16_216
*1173 FILLER_0_16_222
*1174 FILLER_0_16_24
*1175 FILLER_0_16_243
*1176 FILLER_0_16_261
*1177 FILLER_0_16_288
*1178 FILLER_0_16_29
*1179 FILLER_0_16_3
*1180 FILLER_0_16_300
*1181 FILLER_0_16_332
*1182 FILLER_0_16_37
*1183 FILLER_0_16_7
*1184 FILLER_0_16_94
*1185 FILLER_0_16_98
*1186 FILLER_0_17_103
*1187 FILLER_0_17_109
*1188 FILLER_0_17_113
*1189 FILLER_0_17_123
*1190 FILLER_0_17_140
*1191 FILLER_0_17_144
*1192 FILLER_0_17_159
*1193 FILLER_0_17_167
*1194 FILLER_0_17_169
*1195 FILLER_0_17_223
*1196 FILLER_0_17_225
*1197 FILLER_0_17_237
*1198 FILLER_0_17_277
*1199 FILLER_0_17_281
*1200 FILLER_0_17_296
*1201 FILLER_0_17_3
*1202 FILLER_0_17_300
*1203 FILLER_0_17_325
*1204 FILLER_0_17_39
*1205 FILLER_0_17_51
*1206 FILLER_0_17_55
*1207 FILLER_0_17_57
*1208 FILLER_0_17_63
*1209 FILLER_0_18_11
*1210 FILLER_0_18_131
*1211 FILLER_0_18_145
*1212 FILLER_0_18_155
*1213 FILLER_0_18_16
*1214 FILLER_0_18_167
*1215 FILLER_0_18_186
*1216 FILLER_0_18_194
*1217 FILLER_0_18_220
*1218 FILLER_0_18_232
*1219 FILLER_0_18_244
*1220 FILLER_0_18_258
*1221 FILLER_0_18_263
*1222 FILLER_0_18_272
*1223 FILLER_0_18_280
*1224 FILLER_0_18_295
*1225 FILLER_0_18_3
*1226 FILLER_0_18_301
*1227 FILLER_0_18_309
*1228 FILLER_0_18_323
*1229 FILLER_0_18_332
*1230 FILLER_0_18_44
*1231 FILLER_0_18_56
*1232 FILLER_0_18_68
*1233 FILLER_0_18_77
*1234 FILLER_0_18_83
*1235 FILLER_0_18_85
*1236 FILLER_0_18_97
*1237 FILLER_0_19_109
*1238 FILLER_0_19_119
*1239 FILLER_0_19_131
*1240 FILLER_0_19_139
*1241 FILLER_0_19_147
*1242 FILLER_0_19_15
*1243 FILLER_0_19_155
*1244 FILLER_0_19_167
*1245 FILLER_0_19_188
*1246 FILLER_0_19_200
*1247 FILLER_0_19_210
*1248 FILLER_0_19_222
*1249 FILLER_0_19_225
*1250 FILLER_0_19_233
*1251 FILLER_0_19_251
*1252 FILLER_0_19_263
*1253 FILLER_0_19_272
*1254 FILLER_0_19_281
*1255 FILLER_0_19_293
*1256 FILLER_0_19_3
*1257 FILLER_0_19_325
*1258 FILLER_0_19_333
*1259 FILLER_0_19_52
*1260 FILLER_0_19_73
*1261 FILLER_0_19_85
*1262 FILLER_0_19_97
*1263 FILLER_0_1_100
*1264 FILLER_0_1_108
*1265 FILLER_0_1_129
*1266 FILLER_0_1_147
*1267 FILLER_0_1_15
*1268 FILLER_0_1_151
*1269 FILLER_0_1_178
*1270 FILLER_0_1_190
*1271 FILLER_0_1_196
*1272 FILLER_0_1_223
*1273 FILLER_0_1_225
*1274 FILLER_0_1_237
*1275 FILLER_0_1_27
*1276 FILLER_0_1_278
*1277 FILLER_0_1_281
*1278 FILLER_0_1_3
*1279 FILLER_0_1_309
*1280 FILLER_0_1_321
*1281 FILLER_0_1_333
*1282 FILLER_0_1_39
*1283 FILLER_0_1_51
*1284 FILLER_0_1_55
*1285 FILLER_0_1_57
*1286 FILLER_0_1_69
*1287 FILLER_0_1_81
*1288 FILLER_0_20_101
*1289 FILLER_0_20_120
*1290 FILLER_0_20_132
*1291 FILLER_0_20_15
*1292 FILLER_0_20_150
*1293 FILLER_0_20_189
*1294 FILLER_0_20_195
*1295 FILLER_0_20_197
*1296 FILLER_0_20_209
*1297 FILLER_0_20_221
*1298 FILLER_0_20_23
*1299 FILLER_0_20_250
*1300 FILLER_0_20_256
*1301 FILLER_0_20_27
*1302 FILLER_0_20_288
*1303 FILLER_0_20_3
*1304 FILLER_0_20_300
*1305 FILLER_0_20_322
*1306 FILLER_0_20_334
*1307 FILLER_0_20_38
*1308 FILLER_0_20_50
*1309 FILLER_0_20_82
*1310 FILLER_0_21_111
*1311 FILLER_0_21_120
*1312 FILLER_0_21_132
*1313 FILLER_0_21_155
*1314 FILLER_0_21_175
*1315 FILLER_0_21_218
*1316 FILLER_0_21_24
*1317 FILLER_0_21_263
*1318 FILLER_0_21_275
*1319 FILLER_0_21_279
*1320 FILLER_0_21_281
*1321 FILLER_0_21_293
*1322 FILLER_0_21_3
*1323 FILLER_0_21_314
*1324 FILLER_0_21_326
*1325 FILLER_0_21_334
*1326 FILLER_0_21_35
*1327 FILLER_0_21_55
*1328 FILLER_0_21_7
*1329 FILLER_0_21_72
*1330 FILLER_0_22_101
*1331 FILLER_0_22_109
*1332 FILLER_0_22_114
*1333 FILLER_0_22_122
*1334 FILLER_0_22_128
*1335 FILLER_0_22_141
*1336 FILLER_0_22_145
*1337 FILLER_0_22_158
*1338 FILLER_0_22_177
*1339 FILLER_0_22_189
*1340 FILLER_0_22_195
*1341 FILLER_0_22_197
*1342 FILLER_0_22_209
*1343 FILLER_0_22_221
*1344 FILLER_0_22_24
*1345 FILLER_0_22_257
*1346 FILLER_0_22_3
*1347 FILLER_0_22_303
*1348 FILLER_0_22_307
*1349 FILLER_0_22_329
*1350 FILLER_0_22_38
*1351 FILLER_0_22_56
*1352 FILLER_0_22_64
*1353 FILLER_0_22_68
*1354 FILLER_0_22_74
*1355 FILLER_0_22_80
*1356 FILLER_0_23_102
*1357 FILLER_0_23_11
*1358 FILLER_0_23_110
*1359 FILLER_0_23_113
*1360 FILLER_0_23_125
*1361 FILLER_0_23_137
*1362 FILLER_0_23_145
*1363 FILLER_0_23_16
*1364 FILLER_0_23_165
*1365 FILLER_0_23_189
*1366 FILLER_0_23_195
*1367 FILLER_0_23_212
*1368 FILLER_0_23_248
*1369 FILLER_0_23_260
*1370 FILLER_0_23_27
*1371 FILLER_0_23_270
*1372 FILLER_0_23_278
*1373 FILLER_0_23_288
*1374 FILLER_0_23_292
*1375 FILLER_0_23_3
*1376 FILLER_0_23_300
*1377 FILLER_0_23_334
*1378 FILLER_0_23_35
*1379 FILLER_0_23_43
*1380 FILLER_0_23_54
*1381 FILLER_0_23_66
*1382 FILLER_0_23_78
*1383 FILLER_0_23_90
*1384 FILLER_0_24_108
*1385 FILLER_0_24_120
*1386 FILLER_0_24_132
*1387 FILLER_0_24_146
*1388 FILLER_0_24_15
*1389 FILLER_0_24_178
*1390 FILLER_0_24_213
*1391 FILLER_0_24_237
*1392 FILLER_0_24_27
*1393 FILLER_0_24_273
*1394 FILLER_0_24_285
*1395 FILLER_0_24_29
*1396 FILLER_0_24_297
*1397 FILLER_0_24_3
*1398 FILLER_0_24_305
*1399 FILLER_0_24_320
*1400 FILLER_0_24_332
*1401 FILLER_0_24_41
*1402 FILLER_0_24_51
*1403 FILLER_0_24_63
*1404 FILLER_0_24_67
*1405 FILLER_0_24_75
*1406 FILLER_0_24_83
*1407 FILLER_0_24_99
*1408 FILLER_0_25_104
*1409 FILLER_0_25_113
*1410 FILLER_0_25_125
*1411 FILLER_0_25_137
*1412 FILLER_0_25_15
*1413 FILLER_0_25_151
*1414 FILLER_0_25_167
*1415 FILLER_0_25_169
*1416 FILLER_0_25_181
*1417 FILLER_0_25_193
*1418 FILLER_0_25_199
*1419 FILLER_0_25_218
*1420 FILLER_0_25_225
*1421 FILLER_0_25_23
*1422 FILLER_0_25_237
*1423 FILLER_0_25_252
*1424 FILLER_0_25_264
*1425 FILLER_0_25_278
*1426 FILLER_0_25_28
*1427 FILLER_0_25_281
*1428 FILLER_0_25_289
*1429 FILLER_0_25_3
*1430 FILLER_0_25_300
*1431 FILLER_0_25_329
*1432 FILLER_0_25_40
*1433 FILLER_0_25_52
*1434 FILLER_0_25_57
*1435 FILLER_0_25_69
*1436 FILLER_0_25_96
*1437 FILLER_0_26_113
*1438 FILLER_0_26_125
*1439 FILLER_0_26_158
*1440 FILLER_0_26_166
*1441 FILLER_0_26_178
*1442 FILLER_0_26_190
*1443 FILLER_0_26_197
*1444 FILLER_0_26_205
*1445 FILLER_0_26_232
*1446 FILLER_0_26_244
*1447 FILLER_0_26_265
*1448 FILLER_0_26_286
*1449 FILLER_0_26_3
*1450 FILLER_0_26_329
*1451 FILLER_0_26_39
*1452 FILLER_0_26_74
*1453 FILLER_0_26_85
*1454 FILLER_0_27_113
*1455 FILLER_0_27_133
*1456 FILLER_0_27_143
*1457 FILLER_0_27_151
*1458 FILLER_0_27_161
*1459 FILLER_0_27_167
*1460 FILLER_0_27_197
*1461 FILLER_0_27_209
*1462 FILLER_0_27_216
*1463 FILLER_0_27_234
*1464 FILLER_0_27_238
*1465 FILLER_0_27_279
*1466 FILLER_0_27_288
*1467 FILLER_0_27_3
*1468 FILLER_0_27_333
*1469 FILLER_0_27_54
*1470 FILLER_0_27_65
*1471 FILLER_0_27_73
*1472 FILLER_0_27_77
*1473 FILLER_0_27_85
*1474 FILLER_0_27_9
*1475 FILLER_0_28_109
*1476 FILLER_0_28_115
*1477 FILLER_0_28_136
*1478 FILLER_0_28_141
*1479 FILLER_0_28_145
*1480 FILLER_0_28_15
*1481 FILLER_0_28_157
*1482 FILLER_0_28_165
*1483 FILLER_0_28_178
*1484 FILLER_0_28_191
*1485 FILLER_0_28_195
*1486 FILLER_0_28_242
*1487 FILLER_0_28_250
*1488 FILLER_0_28_253
*1489 FILLER_0_28_261
*1490 FILLER_0_28_267
*1491 FILLER_0_28_27
*1492 FILLER_0_28_289
*1493 FILLER_0_28_29
*1494 FILLER_0_28_3
*1495 FILLER_0_28_301
*1496 FILLER_0_28_326
*1497 FILLER_0_28_334
*1498 FILLER_0_28_36
*1499 FILLER_0_28_40
*1500 FILLER_0_28_44
*1501 FILLER_0_28_70
*1502 FILLER_0_28_82
*1503 FILLER_0_28_85
*1504 FILLER_0_28_97
*1505 FILLER_0_29_109
*1506 FILLER_0_29_11
*1507 FILLER_0_29_113
*1508 FILLER_0_29_125
*1509 FILLER_0_29_137
*1510 FILLER_0_29_143
*1511 FILLER_0_29_151
*1512 FILLER_0_29_155
*1513 FILLER_0_29_16
*1514 FILLER_0_29_160
*1515 FILLER_0_29_169
*1516 FILLER_0_29_196
*1517 FILLER_0_29_208
*1518 FILLER_0_29_220
*1519 FILLER_0_29_245
*1520 FILLER_0_29_257
*1521 FILLER_0_29_277
*1522 FILLER_0_29_281
*1523 FILLER_0_29_293
*1524 FILLER_0_29_3
*1525 FILLER_0_29_305
*1526 FILLER_0_29_320
*1527 FILLER_0_29_331
*1528 FILLER_0_29_35
*1529 FILLER_0_29_42
*1530 FILLER_0_29_54
*1531 FILLER_0_29_57
*1532 FILLER_0_29_64
*1533 FILLER_0_29_70
*1534 FILLER_0_29_78
*1535 FILLER_0_29_90
*1536 FILLER_0_2_126
*1537 FILLER_0_2_139
*1538 FILLER_0_2_15
*1539 FILLER_0_2_157
*1540 FILLER_0_2_174
*1541 FILLER_0_2_178
*1542 FILLER_0_2_195
*1543 FILLER_0_2_220
*1544 FILLER_0_2_232
*1545 FILLER_0_2_244
*1546 FILLER_0_2_27
*1547 FILLER_0_2_29
*1548 FILLER_0_2_3
*1549 FILLER_0_2_306
*1550 FILLER_0_2_317
*1551 FILLER_0_2_329
*1552 FILLER_0_2_41
*1553 FILLER_0_2_53
*1554 FILLER_0_2_65
*1555 FILLER_0_2_77
*1556 FILLER_0_30_104
*1557 FILLER_0_30_119
*1558 FILLER_0_30_131
*1559 FILLER_0_30_138
*1560 FILLER_0_30_141
*1561 FILLER_0_30_150
*1562 FILLER_0_30_160
*1563 FILLER_0_30_172
*1564 FILLER_0_30_176
*1565 FILLER_0_30_183
*1566 FILLER_0_30_187
*1567 FILLER_0_30_193
*1568 FILLER_0_30_203
*1569 FILLER_0_30_215
*1570 FILLER_0_30_219
*1571 FILLER_0_30_240
*1572 FILLER_0_30_253
*1573 FILLER_0_30_259
*1574 FILLER_0_30_29
*1575 FILLER_0_30_291
*1576 FILLER_0_30_297
*1577 FILLER_0_30_3
*1578 FILLER_0_30_305
*1579 FILLER_0_30_329
*1580 FILLER_0_30_41
*1581 FILLER_0_30_72
*1582 FILLER_0_30_82
*1583 FILLER_0_30_88
*1584 FILLER_0_30_96
*1585 FILLER_0_31_105
*1586 FILLER_0_31_129
*1587 FILLER_0_31_159
*1588 FILLER_0_31_167
*1589 FILLER_0_31_176
*1590 FILLER_0_31_18
*1591 FILLER_0_31_204
*1592 FILLER_0_31_216
*1593 FILLER_0_31_231
*1594 FILLER_0_31_243
*1595 FILLER_0_31_247
*1596 FILLER_0_31_278
*1597 FILLER_0_31_289
*1598 FILLER_0_31_297
*1599 FILLER_0_31_3
*1600 FILLER_0_31_31
*1601 FILLER_0_31_331
*1602 FILLER_0_31_39
*1603 FILLER_0_31_55
*1604 FILLER_0_31_80
*1605 FILLER_0_32_103
*1606 FILLER_0_32_107
*1607 FILLER_0_32_116
*1608 FILLER_0_32_124
*1609 FILLER_0_32_134
*1610 FILLER_0_32_138
*1611 FILLER_0_32_146
*1612 FILLER_0_32_153
*1613 FILLER_0_32_161
*1614 FILLER_0_32_179
*1615 FILLER_0_32_192
*1616 FILLER_0_32_197
*1617 FILLER_0_32_208
*1618 FILLER_0_32_234
*1619 FILLER_0_32_246
*1620 FILLER_0_32_253
*1621 FILLER_0_32_289
*1622 FILLER_0_32_297
*1623 FILLER_0_32_3
*1624 FILLER_0_32_329
*1625 FILLER_0_32_46
*1626 FILLER_0_32_57
*1627 FILLER_0_32_7
*1628 FILLER_0_32_75
*1629 FILLER_0_32_83
*1630 FILLER_0_32_85
*1631 FILLER_0_33_102
*1632 FILLER_0_33_110
*1633 FILLER_0_33_113
*1634 FILLER_0_33_121
*1635 FILLER_0_33_15