*SPEF "ieee 1481-1999"
*DESIGN "tt_um_iron_violet_simon"
*DATE "11:11:11 Fri 11 11, 1111"
*VENDOR "OpenRCX"
*PROGRAM "Parallel Extraction"
*VERSION "1.0"
*DESIGN_FLOW "NAME_SCOPE LOCAL" "PIN_CAP NONE"
*DIVIDER /
*DELIMITER :
*BUS_DELIMITER []
*T_UNIT 1 NS
*C_UNIT 1 PF
*R_UNIT 1 OHM
*L_UNIT 1 HENRY

*NAME_MAP
*3 clk
*4 ena
*5 rst_n
*6 ui_in[0]
*7 ui_in[1]
*8 ui_in[2]
*9 ui_in[3]
*10 ui_in[4]
*11 ui_in[5]
*12 ui_in[6]
*13 ui_in[7]
*14 uio_in[0]
*15 uio_in[1]
*16 uio_in[2]
*17 uio_in[3]
*18 uio_in[4]
*19 uio_in[5]
*20 uio_in[6]
*21 uio_in[7]
*22 net15
*23 net16
*24 net17
*25 net18
*26 net19
*27 net20
*28 net21
*29 net22
*30 net23
*31 net24
*32 net25
*33 net6
*34 net7
*35 net8
*36 net9
*37 net10
*38 uo_out[0]
*39 uo_out[1]
*40 net11
*41 net12
*42 net13
*43 net14
*44 uo_out[6]
*45 uo_out[7]
*46 _000_
*47 _001_
*48 _002_
*49 _003_
*50 _004_
*51 _005_
*52 _006_
*53 _007_
*54 _008_
*55 _009_
*56 _010_
*57 _011_
*58 _012_
*59 _013_
*60 _014_
*61 _015_
*62 _016_
*63 _017_
*64 _018_
*65 _019_
*66 _020_
*67 _021_
*68 _022_
*69 _023_
*70 _024_
*71 _025_
*72 _026_
*73 _027_
*74 _028_
*75 _029_
*76 _030_
*77 _031_
*78 _032_
*79 _033_
*80 _034_
*81 _035_
*82 _036_
*83 _037_
*84 _038_
*85 _039_
*86 _040_
*87 _041_
*88 _042_
*89 _043_
*90 _044_
*91 _045_
*92 _046_
*93 _047_
*94 _048_
*95 _049_
*96 _050_
*97 _051_
*98 _052_
*99 _053_
*100 _054_
*101 _055_
*102 _056_
*103 _057_
*104 _058_
*105 _059_
*106 _060_
*107 _061_
*108 _062_
*109 _063_
*110 _064_
*111 _065_
*112 _066_
*113 _067_
*114 _068_
*115 _069_
*116 _070_
*117 _071_
*118 _072_
*119 _073_
*120 _074_
*121 _075_
*122 _076_
*123 _077_
*124 _078_
*125 _079_
*126 _080_
*127 _081_
*128 _082_
*129 _083_
*130 _084_
*131 _085_
*132 _086_
*133 _087_
*134 _088_
*135 _089_
*136 _090_
*137 _091_
*138 _092_
*139 _093_
*140 _094_
*141 _095_
*142 _096_
*143 _097_
*144 _098_
*145 _099_
*146 _100_
*147 _101_
*148 _102_
*149 _103_
*150 _104_
*151 _105_
*152 _106_
*153 _107_
*154 _108_
*155 _109_
*156 _110_
*157 _111_
*158 _112_
*159 _113_
*160 _114_
*161 _115_
*162 _116_
*163 _117_
*164 _118_
*165 _119_
*166 _120_
*167 _121_
*168 _122_
*169 _123_
*170 _124_
*171 _125_
*172 _126_
*173 _127_
*174 _128_
*175 _129_
*176 _130_
*177 _131_
*178 _132_
*179 _133_
*180 _134_
*181 _135_
*182 _136_
*183 _137_
*184 _138_
*185 _139_
*186 _140_
*187 _141_
*188 _142_
*189 _143_
*190 _144_
*191 _145_
*192 _146_
*193 _147_
*194 _148_
*195 clknet_0_clk
*196 clknet_2_0__leaf_clk
*197 clknet_2_1__leaf_clk
*198 clknet_2_2__leaf_clk
*199 clknet_2_3__leaf_clk
*200 net1
*201 net2
*202 net26
*203 net27
*204 net28
*205 net29
*206 net3
*207 net30
*208 net31
*209 net32
*210 net33
*211 net34
*212 net35
*213 net36
*214 net37
*215 net38
*216 net39
*217 net4
*218 net40
*219 net41
*220 net42
*221 net43
*222 net44
*223 net45
*224 net46
*225 net47
*226 net48
*227 net49
*228 net5
*229 net50
*230 net51
*231 net52
*232 net53
*233 net54
*234 net55
*235 net56
*236 net57
*237 net58
*238 net59
*239 stack_i\.EMPTY
*240 stack_i\.FULL
*241 stack_i\.ptr\[0\]
*242 stack_i\.ptr\[1\]
*243 stack_i\.ptr\[2\]
*244 stack_i\.ptr\[3\]
*245 stack_i\.stack\[0\]\[0\]
*246 stack_i\.stack\[0\]\[1\]
*247 stack_i\.stack\[10\]\[0\]
*248 stack_i\.stack\[10\]\[1\]
*249 stack_i\.stack\[11\]\[0\]
*250 stack_i\.stack\[11\]\[1\]
*251 stack_i\.stack\[12\]\[0\]
*252 stack_i\.stack\[12\]\[1\]
*253 stack_i\.stack\[13\]\[0\]
*254 stack_i\.stack\[13\]\[1\]
*255 stack_i\.stack\[14\]\[0\]
*256 stack_i\.stack\[14\]\[1\]
*257 stack_i\.stack\[15\]\[0\]
*258 stack_i\.stack\[15\]\[1\]
*259 stack_i\.stack\[1\]\[0\]
*260 stack_i\.stack\[1\]\[1\]
*261 stack_i\.stack\[2\]\[0\]
*262 stack_i\.stack\[2\]\[1\]
*263 stack_i\.stack\[3\]\[0\]
*264 stack_i\.stack\[3\]\[1\]
*265 stack_i\.stack\[4\]\[0\]
*266 stack_i\.stack\[4\]\[1\]
*267 stack_i\.stack\[5\]\[0\]
*268 stack_i\.stack\[5\]\[1\]
*269 stack_i\.stack\[6\]\[0\]
*270 stack_i\.stack\[6\]\[1\]
*271 stack_i\.stack\[7\]\[0\]
*272 stack_i\.stack\[7\]\[1\]
*273 stack_i\.stack\[8\]\[0\]
*274 stack_i\.stack\[8\]\[1\]
*275 stack_i\.stack\[9\]\[0\]
*276 stack_i\.stack\[9\]\[1\]
*277 FILLER_0_0_109
*278 FILLER_0_0_113
*279 FILLER_0_0_125
*280 FILLER_0_0_137
*281 FILLER_0_0_141
*282 FILLER_0_0_15
*283 FILLER_0_0_153
*284 FILLER_0_0_165
*285 FILLER_0_0_169
*286 FILLER_0_0_181
*287 FILLER_0_0_193
*288 FILLER_0_0_197
*289 FILLER_0_0_209
*290 FILLER_0_0_221
*291 FILLER_0_0_225
*292 FILLER_0_0_237
*293 FILLER_0_0_249
*294 FILLER_0_0_253
*295 FILLER_0_0_265
*296 FILLER_0_0_27
*297 FILLER_0_0_277
*298 FILLER_0_0_281
*299 FILLER_0_0_29
*300 FILLER_0_0_293
*301 FILLER_0_0_3
*302 FILLER_0_0_305
*303 FILLER_0_0_309
*304 FILLER_0_0_321
*305 FILLER_0_0_333
*306 FILLER_0_0_41
*307 FILLER_0_0_53
*308 FILLER_0_0_57
*309 FILLER_0_0_69
*310 FILLER_0_0_81
*311 FILLER_0_0_85
*312 FILLER_0_0_97
*313 FILLER_0_10_109
*314 FILLER_0_10_121
*315 FILLER_0_10_133
*316 FILLER_0_10_139
*317 FILLER_0_10_141
*318 FILLER_0_10_15
*319 FILLER_0_10_153
*320 FILLER_0_10_165
*321 FILLER_0_10_177
*322 FILLER_0_10_189
*323 FILLER_0_10_195
*324 FILLER_0_10_197
*325 FILLER_0_10_209
*326 FILLER_0_10_221
*327 FILLER_0_10_233
*328 FILLER_0_10_245
*329 FILLER_0_10_251
*330 FILLER_0_10_253
*331 FILLER_0_10_265
*332 FILLER_0_10_27
*333 FILLER_0_10_277
*334 FILLER_0_10_289
*335 FILLER_0_10_29
*336 FILLER_0_10_3
*337 FILLER_0_10_301
*338 FILLER_0_10_307
*339 FILLER_0_10_309
*340 FILLER_0_10_321
*341 FILLER_0_10_333
*342 FILLER_0_10_41
*343 FILLER_0_10_53
*344 FILLER_0_10_65
*345 FILLER_0_10_77
*346 FILLER_0_10_83
*347 FILLER_0_10_85
*348 FILLER_0_10_97
*349 FILLER_0_11_105
*350 FILLER_0_11_111
*351 FILLER_0_11_113
*352 FILLER_0_11_125
*353 FILLER_0_11_137
*354 FILLER_0_11_149
*355 FILLER_0_11_15
*356 FILLER_0_11_161
*357 FILLER_0_11_167
*358 FILLER_0_11_169
*359 FILLER_0_11_181
*360 FILLER_0_11_193
*361 FILLER_0_11_205
*362 FILLER_0_11_217
*363 FILLER_0_11_223
*364 FILLER_0_11_225
*365 FILLER_0_11_237
*366 FILLER_0_11_249
*367 FILLER_0_11_261
*368 FILLER_0_11_27
*369 FILLER_0_11_273
*370 FILLER_0_11_279
*371 FILLER_0_11_281
*372 FILLER_0_11_293
*373 FILLER_0_11_3
*374 FILLER_0_11_305
*375 FILLER_0_11_317
*376 FILLER_0_11_329
*377 FILLER_0_11_39
*378 FILLER_0_11_51
*379 FILLER_0_11_55
*380 FILLER_0_11_57
*381 FILLER_0_11_69
*382 FILLER_0_11_81
*383 FILLER_0_11_93
*384 FILLER_0_12_109
*385 FILLER_0_12_121
*386 FILLER_0_12_133
*387 FILLER_0_12_139
*388 FILLER_0_12_141
*389 FILLER_0_12_15
*390 FILLER_0_12_153
*391 FILLER_0_12_165
*392 FILLER_0_12_177
*393 FILLER_0_12_189
*394 FILLER_0_12_195
*395 FILLER_0_12_197
*396 FILLER_0_12_209
*397 FILLER_0_12_221
*398 FILLER_0_12_233
*399 FILLER_0_12_245
*400 FILLER_0_12_251
*401 FILLER_0_12_253
*402 FILLER_0_12_265
*403 FILLER_0_12_27
*404 FILLER_0_12_277
*405 FILLER_0_12_289
*406 FILLER_0_12_29
*407 FILLER_0_12_3
*408 FILLER_0_12_301
*409 FILLER_0_12_307
*410 FILLER_0_12_309
*411 FILLER_0_12_321
*412 FILLER_0_12_333
*413 FILLER_0_12_41
*414 FILLER_0_12_53
*415 FILLER_0_12_65
*416 FILLER_0_12_77
*417 FILLER_0_12_83
*418 FILLER_0_12_85
*419 FILLER_0_12_97
*420 FILLER_0_13_105
*421 FILLER_0_13_111
*422 FILLER_0_13_113
*423 FILLER_0_13_125
*424 FILLER_0_13_137
*425 FILLER_0_13_149
*426 FILLER_0_13_15
*427 FILLER_0_13_161
*428 FILLER_0_13_167
*429 FILLER_0_13_169
*430 FILLER_0_13_181
*431 FILLER_0_13_193
*432 FILLER_0_13_205
*433 FILLER_0_13_217
*434 FILLER_0_13_223
*435 FILLER_0_13_225
*436 FILLER_0_13_237
*437 FILLER_0_13_249
*438 FILLER_0_13_261
*439 FILLER_0_13_27
*440 FILLER_0_13_273
*441 FILLER_0_13_279
*442 FILLER_0_13_281
*443 FILLER_0_13_293
*444 FILLER_0_13_3
*445 FILLER_0_13_305
*446 FILLER_0_13_317
*447 FILLER_0_13_329
*448 FILLER_0_13_39
*449 FILLER_0_13_51
*450 FILLER_0_13_55
*451 FILLER_0_13_57
*452 FILLER_0_13_69
*453 FILLER_0_13_81
*454 FILLER_0_13_93
*455 FILLER_0_14_109
*456 FILLER_0_14_121
*457 FILLER_0_14_133
*458 FILLER_0_14_139
*459 FILLER_0_14_141
*460 FILLER_0_14_15
*461 FILLER_0_14_153
*462 FILLER_0_14_165
*463 FILLER_0_14_177
*464 FILLER_0_14_189
*465 FILLER_0_14_195
*466 FILLER_0_14_197
*467 FILLER_0_14_209
*468 FILLER_0_14_221
*469 FILLER_0_14_233
*470 FILLER_0_14_245
*471 FILLER_0_14_251
*472 FILLER_0_14_253
*473 FILLER_0_14_265
*474 FILLER_0_14_27
*475 FILLER_0_14_277
*476 FILLER_0_14_289
*477 FILLER_0_14_29
*478 FILLER_0_14_3
*479 FILLER_0_14_301
*480 FILLER_0_14_307
*481 FILLER_0_14_309
*482 FILLER_0_14_321
*483 FILLER_0_14_333
*484 FILLER_0_14_41
*485 FILLER_0_14_53
*486 FILLER_0_14_65
*487 FILLER_0_14_77
*488 FILLER_0_14_83
*489 FILLER_0_14_85
*490 FILLER_0_14_97
*491 FILLER_0_15_105
*492 FILLER_0_15_111
*493 FILLER_0_15_113
*494 FILLER_0_15_125
*495 FILLER_0_15_137
*496 FILLER_0_15_149
*497 FILLER_0_15_15
*498 FILLER_0_15_161
*499 FILLER_0_15_167
*500 FILLER_0_15_169
*501 FILLER_0_15_181
*502 FILLER_0_15_193
*503 FILLER_0_15_205
*504 FILLER_0_15_217
*505 FILLER_0_15_223
*506 FILLER_0_15_225
*507 FILLER_0_15_237
*508 FILLER_0_15_249
*509 FILLER_0_15_261
*510 FILLER_0_15_27
*511 FILLER_0_15_273
*512 FILLER_0_15_279
*513 FILLER_0_15_281
*514 FILLER_0_15_293
*515 FILLER_0_15_3
*516 FILLER_0_15_305
*517 FILLER_0_15_317
*518 FILLER_0_15_329
*519 FILLER_0_15_39
*520 FILLER_0_15_51
*521 FILLER_0_15_55
*522 FILLER_0_15_57
*523 FILLER_0_15_69
*524 FILLER_0_15_81
*525 FILLER_0_15_93
*526 FILLER_0_16_109
*527 FILLER_0_16_121
*528 FILLER_0_16_133
*529 FILLER_0_16_139
*530 FILLER_0_16_141
*531 FILLER_0_16_15
*532 FILLER_0_16_153
*533 FILLER_0_16_165
*534 FILLER_0_16_177
*535 FILLER_0_16_189
*536 FILLER_0_16_195
*537 FILLER_0_16_197
*538 FILLER_0_16_209
*539 FILLER_0_16_221
*540 FILLER_0_16_233
*541 FILLER_0_16_245
*542 FILLER_0_16_251
*543 FILLER_0_16_253
*544 FILLER_0_16_265
*545 FILLER_0_16_27
*546 FILLER_0_16_277
*547 FILLER_0_16_289
*548 FILLER_0_16_29
*549 FILLER_0_16_3
*550 FILLER_0_16_301
*551 FILLER_0_16_307
*552 FILLER_0_16_309
*553 FILLER_0_16_321
*554 FILLER_0_16_333
*555 FILLER_0_16_41
*556 FILLER_0_16_53
*557 FILLER_0_16_65
*558 FILLER_0_16_77
*559 FILLER_0_16_83
*560 FILLER_0_16_85
*561 FILLER_0_16_97
*562 FILLER_0_17_105
*563 FILLER_0_17_111
*564 FILLER_0_17_113
*565 FILLER_0_17_125
*566 FILLER_0_17_137
*567 FILLER_0_17_149
*568 FILLER_0_17_15
*569 FILLER_0_17_161
*570 FILLER_0_17_167
*571 FILLER_0_17_169
*572 FILLER_0_17_181
*573 FILLER_0_17_193
*574 FILLER_0_17_205
*575 FILLER_0_17_217
*576 FILLER_0_17_223
*577 FILLER_0_17_225
*578 FILLER_0_17_237
*579 FILLER_0_17_249
*580 FILLER_0_17_261
*581 FILLER_0_17_27
*582 FILLER_0_17_273
*583 FILLER_0_17_279
*584 FILLER_0_17_281
*585 FILLER_0_17_293
*586 FILLER_0_17_3
*587 FILLER_0_17_305
*588 FILLER_0_17_317
*589 FILLER_0_17_329
*590 FILLER_0_17_39
*591 FILLER_0_17_51
*592 FILLER_0_17_55
*593 FILLER_0_17_57
*594 FILLER_0_17_69
*595 FILLER_0_17_81
*596 FILLER_0_17_93
*597 FILLER_0_18_109
*598 FILLER_0_18_121
*599 FILLER_0_18_133
*600 FILLER_0_18_139
*601 FILLER_0_18_141
*602 FILLER_0_18_15
*603 FILLER_0_18_153
*604 FILLER_0_18_165
*605 FILLER_0_18_177
*606 FILLER_0_18_189
*607 FILLER_0_18_195
*608 FILLER_0_18_197
*609 FILLER_0_18_209
*610 FILLER_0_18_221
*611 FILLER_0_18_233
*612 FILLER_0_18_245
*613 FILLER_0_18_251
*614 FILLER_0_18_253
*615 FILLER_0_18_265
*616 FILLER_0_18_27
*617 FILLER_0_18_277
*618 FILLER_0_18_289
*619 FILLER_0_18_29
*620 FILLER_0_18_3
*621 FILLER_0_18_301
*622 FILLER_0_18_307
*623 FILLER_0_18_309
*624 FILLER_0_18_321
*625 FILLER_0_18_333
*626 FILLER_0_18_41
*627 FILLER_0_18_53
*628 FILLER_0_18_65
*629 FILLER_0_18_77
*630 FILLER_0_18_83
*631 FILLER_0_18_85
*632 FILLER_0_18_97
*633 FILLER_0_19_105
*634 FILLER_0_19_111
*635 FILLER_0_19_113
*636 FILLER_0_19_125
*637 FILLER_0_19_137
*638 FILLER_0_19_149
*639 FILLER_0_19_15
*640 FILLER_0_19_161
*641 FILLER_0_19_167
*642 FILLER_0_19_169
*643 FILLER_0_19_181
*644 FILLER_0_19_193
*645 FILLER_0_19_205
*646 FILLER_0_19_217
*647 FILLER_0_19_223
*648 FILLER_0_19_225
*649 FILLER_0_19_237
*650 FILLER_0_19_249
*651 FILLER_0_19_261
*652 FILLER_0_19_27
*653 FILLER_0_19_273
*654 FILLER_0_19_279
*655 FILLER_0_19_281
*656 FILLER_0_19_293
*657 FILLER_0_19_3
*658 FILLER_0_19_305
*659 FILLER_0_19_317
*660 FILLER_0_19_329
*661 FILLER_0_19_39
*662 FILLER_0_19_51
*663 FILLER_0_19_55
*664 FILLER_0_19_57
*665 FILLER_0_19_69
*666 FILLER_0_19_81
*667 FILLER_0_19_93
*668 FILLER_0_1_105
*669 FILLER_0_1_111
*670 FILLER_0_1_113
*671 FILLER_0_1_125
*672 FILLER_0_1_137
*673 FILLER_0_1_149
*674 FILLER_0_1_15
*675 FILLER_0_1_161
*676 FILLER_0_1_167
*677 FILLER_0_1_169
*678 FILLER_0_1_181
*679 FILLER_0_1_193
*680 FILLER_0_1_205
*681 FILLER_0_1_217
*682 FILLER_0_1_223
*683 FILLER_0_1_225
*684 FILLER_0_1_237
*685 FILLER_0_1_249
*686 FILLER_0_1_261
*687 FILLER_0_1_27
*688 FILLER_0_1_273
*689 FILLER_0_1_279
*690 FILLER_0_1_281
*691 FILLER_0_1_293
*692 FILLER_0_1_3
*693 FILLER_0_1_305
*694 FILLER_0_1_317
*695 FILLER_0_1_329
*696 FILLER_0_1_39
*697 FILLER_0_1_51
*698 FILLER_0_1_55
*699 FILLER_0_1_57
*700 FILLER_0_1_69
*701 FILLER_0_1_81
*702 FILLER_0_1_93
*703 FILLER_0_20_109
*704 FILLER_0_20_121
*705 FILLER_0_20_133
*706 FILLER_0_20_139
*707 FILLER_0_20_141
*708 FILLER_0_20_15
*709 FILLER_0_20_153
*710 FILLER_0_20_165
*711 FILLER_0_20_177
*712 FILLER_0_20_189
*713 FILLER_0_20_195
*714 FILLER_0_20_197
*715 FILLER_0_20_209
*716 FILLER_0_20_221
*717 FILLER_0_20_233
*718 FILLER_0_20_245
*719 FILLER_0_20_251
*720 FILLER_0_20_253
*721 FILLER_0_20_265
*722 FILLER_0_20_27
*723 FILLER_0_20_277
*724 FILLER_0_20_289
*725 FILLER_0_20_29
*726 FILLER_0_20_3
*727 FILLER_0_20_301
*728 FILLER_0_20_307
*729 FILLER_0_20_309
*730 FILLER_0_20_321
*731 FILLER_0_20_333
*732 FILLER_0_20_41
*733 FILLER_0_20_53
*734 FILLER_0_20_65
*735 FILLER_0_20_77
*736 FILLER_0_20_83
*737 FILLER_0_20_85
*738 FILLER_0_20_97
*739 FILLER_0_21_105
*740 FILLER_0_21_111
*741 FILLER_0_21_113
*742 FILLER_0_21_125
*743 FILLER_0_21_137
*744 FILLER_0_21_149
*745 FILLER_0_21_15
*746 FILLER_0_21_161
*747 FILLER_0_21_167
*748 FILLER_0_21_169
*749 FILLER_0_21_181
*750 FILLER_0_21_193
*751 FILLER_0_21_205
*752 FILLER_0_21_217
*753 FILLER_0_21_223
*754 FILLER_0_21_225
*755 FILLER_0_21_237
*756 FILLER_0_21_249
*757 FILLER_0_21_261
*758 FILLER_0_21_27
*759 FILLER_0_21_273
*760 FILLER_0_21_279
*761 FILLER_0_21_281
*762 FILLER_0_21_293
*763 FILLER_0_21_3
*764 FILLER_0_21_305
*765 FILLER_0_21_317
*766 FILLER_0_21_329
*767 FILLER_0_21_39
*768 FILLER_0_21_51
*769 FILLER_0_21_55
*770 FILLER_0_21_57
*771 FILLER_0_21_69
*772 FILLER_0_21_81
*773 FILLER_0_21_93
*774 FILLER_0_22_109
*775 FILLER_0_22_121
*776 FILLER_0_22_133
*777 FILLER_0_22_139
*778 FILLER_0_22_141
*779 FILLER_0_22_15
*780 FILLER_0_22_153
*781 FILLER_0_22_165
*782 FILLER_0_22_177
*783 FILLER_0_22_189
*784 FILLER_0_22_195
*785 FILLER_0_22_197
*786 FILLER_0_22_209
*787 FILLER_0_22_221
*788 FILLER_0_22_233
*789 FILLER_0_22_245
*790 FILLER_0_22_251
*791 FILLER_0_22_253
*792 FILLER_0_22_265
*793 FILLER_0_22_27
*794 FILLER_0_22_277
*795 FILLER_0_22_289
*796 FILLER_0_22_29
*797 FILLER_0_22_3
*798 FILLER_0_22_301
*799 FILLER_0_22_307
*800 FILLER_0_22_309
*801 FILLER_0_22_321
*802 FILLER_0_22_333
*803 FILLER_0_22_41
*804 FILLER_0_22_53
*805 FILLER_0_22_65
*806 FILLER_0_22_77
*807 FILLER_0_22_83
*808 FILLER_0_22_85
*809 FILLER_0_22_97
*810 FILLER_0_23_105
*811 FILLER_0_23_111
*812 FILLER_0_23_113
*813 FILLER_0_23_125
*814 FILLER_0_23_137
*815 FILLER_0_23_149
*816 FILLER_0_23_15
*817 FILLER_0_23_161
*818 FILLER_0_23_167
*819 FILLER_0_23_169
*820 FILLER_0_23_181
*821 FILLER_0_23_193
*822 FILLER_0_23_205
*823 FILLER_0_23_209
*824 FILLER_0_23_213
*825 FILLER_0_23_221
*826 FILLER_0_23_233
*827 FILLER_0_23_245
*828 FILLER_0_23_257
*829 FILLER_0_23_269
*830 FILLER_0_23_27
*831 FILLER_0_23_277
*832 FILLER_0_23_289
*833 FILLER_0_23_3
*834 FILLER_0_23_301
*835 FILLER_0_23_313
*836 FILLER_0_23_325
*837 FILLER_0_23_333
*838 FILLER_0_23_39
*839 FILLER_0_23_51
*840 FILLER_0_23_55
*841 FILLER_0_23_57
*842 FILLER_0_23_69
*843 FILLER_0_23_81
*844 FILLER_0_23_93
*845 FILLER_0_24_109
*846 FILLER_0_24_121
*847 FILLER_0_24_133
*848 FILLER_0_24_139
*849 FILLER_0_24_141
*850 FILLER_0_24_15
*851 FILLER_0_24_153
*852 FILLER_0_24_171
*853 FILLER_0_24_183
*854 FILLER_0_24_189
*855 FILLER_0_24_195
*856 FILLER_0_24_197
*857 FILLER_0_24_203
*858 FILLER_0_24_220
*859 FILLER_0_24_239
*860 FILLER_0_24_248
*861 FILLER_0_24_27
*862 FILLER_0_24_270
*863 FILLER_0_24_287
*864 FILLER_0_24_29
*865 FILLER_0_24_299
*866 FILLER_0_24_3
*867 FILLER_0_24_307
*868 FILLER_0_24_317
*869 FILLER_0_24_329
*870 FILLER_0_24_41
*871 FILLER_0_24_53
*872 FILLER_0_24_65
*873 FILLER_0_24_77
*874 FILLER_0_24_83
*875 FILLER_0_24_85
*876 FILLER_0_24_97
*877 FILLER_0_25_105
*878 FILLER_0_25_111
*879 FILLER_0_25_113
*880 FILLER_0_25_125
*881 FILLER_0_25_137
*882 FILLER_0_25_149
*883 FILLER_0_25_15
*884 FILLER_0_25_177
*885 FILLER_0_25_225
*886 FILLER_0_25_238
*887 FILLER_0_25_27
*888 FILLER_0_25_297
*889 FILLER_0_25_3
*890 FILLER_0_25_301
*891 FILLER_0_25_318
*892 FILLER_0_25_330
*893 FILLER_0_25_334
*894 FILLER_0_25_39
*895 FILLER_0_25_51
*896 FILLER_0_25_55
*897 FILLER_0_25_57
*898 FILLER_0_25_69
*899 FILLER_0_25_81
*900 FILLER_0_25_93
*901 FILLER_0_26_109
*902 FILLER_0_26_121
*903 FILLER_0_26_133
*904 FILLER_0_26_139
*905 FILLER_0_26_141
*906 FILLER_0_26_15
*907 FILLER_0_26_153
*908 FILLER_0_26_180
*909 FILLER_0_26_186
*910 FILLER_0_26_227
*911 FILLER_0_26_249
*912 FILLER_0_26_262
*913 FILLER_0_26_27
*914 FILLER_0_26_29
*915 FILLER_0_26_292
*916 FILLER_0_26_298
*917 FILLER_0_26_3
*918 FILLER_0_26_331
*919 FILLER_0_26_41
*920 FILLER_0_26_53
*921 FILLER_0_26_65
*922 FILLER_0_26_77
*923 FILLER_0_26_83
*924 FILLER_0_26_85
*925 FILLER_0_26_97
*926 FILLER_0_27_105
*927 FILLER_0_27_111
*928 FILLER_0_27_113
*929 FILLER_0_27_125
*930 FILLER_0_27_137
*931 FILLER_0_27_149
*932 FILLER_0_27_15
*933 FILLER_0_27_157
*934 FILLER_0_27_162
*935 FILLER_0_27_169
*936 FILLER_0_27_180
*937 FILLER_0_27_192
*938 FILLER_0_27_216
*939 FILLER_0_27_225
*940 FILLER_0_27_235
*941 FILLER_0_27_241
*942 FILLER_0_27_248
*943 FILLER_0_27_256
*944 FILLER_0_27_266
*945 FILLER_0_27_27
*946 FILLER_0_27_270
*947 FILLER_0_27_281
*948 FILLER_0_27_285
*949 FILLER_0_27_3
*950 FILLER_0_27_323
*951 FILLER_0_27_39
*952 FILLER_0_27_51
*953 FILLER_0_27_55
*954 FILLER_0_27_57
*955 FILLER_0_27_69
*956 FILLER_0_27_81
*957 FILLER_0_27_93
*958 FILLER_0_28_109
*959 FILLER_0_28_121
*960 FILLER_0_28_133
*961 FILLER_0_28_139
*962 FILLER_0_28_141
*963 FILLER_0_28_149
*964 FILLER_0_28_15
*965 FILLER_0_28_153
*966 FILLER_0_28_171
*967 FILLER_0_28_180
*968 FILLER_0_28_195
*969 FILLER_0_28_197
*970 FILLER_0_28_205
*971 FILLER_0_28_209
*972 FILLER_0_28_213
*973 FILLER_0_28_241
*974 FILLER_0_28_249
*975 FILLER_0_28_253
*976 FILLER_0_28_261
*977 FILLER_0_28_27
*978 FILLER_0_28_29
*979 FILLER_0_28_3
*980 FILLER_0_28_41
*981 FILLER_0_28_53
*982 FILLER_0_28_65
*983 FILLER_0_28_77
*984 FILLER_0_28_83
*985 FILLER_0_28_85
*986 FILLER_0_28_97
*987 FILLER_0_29_105
*988 FILLER_0_29_111
*989 FILLER_0_29_113
*990 FILLER_0_29_125
*991 FILLER_0_29_137
*992 FILLER_0_29_145
*993 FILLER_0_29_15
*994 FILLER_0_29_163
*995 FILLER_0_29_167
*996 FILLER_0_29_169
*997 FILLER_0_29_175
*998 FILLER_0_29_212
*999 FILLER_0_29_220
*1000 FILLER_0_29_244
*1001 FILLER_0_29_256
*1002 FILLER_0_29_27
*1003 FILLER_0_29_278
*1004 FILLER_0_29_3
*1005 FILLER_0_29_321
*1006 FILLER_0_29_333
*1007 FILLER_0_29_39
*1008 FILLER_0_29_51
*1009 FILLER_0_29_55
*1010 FILLER_0_29_57
*1011 FILLER_0_29_69
*1012 FILLER_0_29_81
*1013 FILLER_0_29_93
*1014 FILLER_0_2_109
*1015 FILLER_0_2_121
*1016 FILLER_0_2_133
*1017 FILLER_0_2_139
*1018 FILLER_0_2_141
*1019 FILLER_0_2_15
*1020 FILLER_0_2_153
*1021 FILLER_0_2_165
*1022 FILLER_0_2_177
*1023 FILLER_0_2_189
*1024 FILLER_0_2_195
*1025 FILLER_0_2_197
*1026 FILLER_0_2_209
*1027 FILLER_0_2_221
*1028 FILLER_0_2_233
*1029 FILLER_0_2_245
*1030 FILLER_0_2_251
*1031 FILLER_0_2_253
*1032 FILLER_0_2_265
*1033 FILLER_0_2_27
*1034 FILLER_0_2_277
*1035 FILLER_0_2_289
*1036 FILLER_0_2_29
*1037 FILLER_0_2_3
*1038 FILLER_0_2_301
*1039 FILLER_0_2_307
*1040 FILLER_0_2_309
*1041 FILLER_0_2_321
*1042 FILLER_0_2_333
*1043 FILLER_0_2_41
*1044 FILLER_0_2_53
*1045 FILLER_0_2_65
*1046 FILLER_0_2_77
*1047 FILLER_0_2_83
*1048 FILLER_0_2_85
*1049 FILLER_0_2_97
*1050 FILLER_0_30_109
*1051 FILLER_0_30_121
*1052 FILLER_0_30_133
*1053 FILLER_0_30_139
*1054 FILLER_0_30_141
*1055 FILLER_0_30_15
*1056 FILLER_0_30_178
*1057 FILLER_0_30_195
*1058 FILLER_0_30_197
*1059 FILLER_0_30_201
*1060 FILLER_0_30_244
*1061 FILLER_0_30_251
*1062 FILLER_0_30_253
*1063 FILLER_0_30_261
*1064 FILLER_0_30_266
*1065 FILLER_0_30_27
*1066 FILLER_0_30_271
*1067 FILLER_0_30_29
*1068 FILLER_0_30_298
*1069 FILLER_0_30_3
*1070 FILLER_0_30_309
*1071 FILLER_0_30_334
*1072 FILLER_0_30_41
*1073 FILLER_0_30_53
*1074 FILLER_0_30_65
*1075 FILLER_0_30_77
*1076 FILLER_0_30_83
*1077 FILLER_0_30_85
*1078 FILLER_0_30_97
*1079 FILLER_0_31_105
*1080 FILLER_0_31_111
*1081 FILLER_0_31_113
*1082 FILLER_0_31_125
*1083 FILLER_0_31_137
*1084 FILLER_0_31_15
*1085 FILLER_0_31_161
*1086 FILLER_0_31_167
*1087 FILLER_0_31_169
*1088 FILLER_0_31_195
*1089 FILLER_0_31_215
*1090 FILLER_0_31_222
*1091 FILLER_0_31_27
*1092 FILLER_0_31_272
*1093 FILLER_0_31_3
*1094 FILLER_0_31_329
*1095 FILLER_0_31_39
*1096 FILLER_0_31_51
*1097 FILLER_0_31_55
*1098 FILLER_0_31_57
*1099 FILLER_0_31_69
*1100 FILLER_0_31_81
*1101 FILLER_0_31_93
*1102 FILLER_0_32_109
*1103 FILLER_0_32_121
*1104 FILLER_0_32_133
*1105 FILLER_0_32_139
*1106 FILLER_0_32_141
*1107 FILLER_0_32_15
*1108 FILLER_0_32_179
*1109 FILLER_0_32_187
*1110 FILLER_0_32_230
*1111 FILLER_0_32_246
*1112 FILLER_0_32_266
*1113 FILLER_0_32_27
*1114 FILLER_0_32_274
*1115 FILLER_0_32_280
*1116 FILLER_0_32_29
*1117 FILLER_0_32_3
*1118 FILLER_0_32_306
*1119 FILLER_0_32_309
*1120 FILLER_0_32_334
*1121 FILLER_0_32_41
*1122 FILLER_0_32_53
*1123 FILLER_0_32_65
*1124 FILLER_0_32_77
*1125 FILLER_0_32_83
*1126 FILLER_0_32_85
*1127 FILLER_0_32_97
*1128 FILLER_0_33_105
*1129 FILLER_0_33_111
*1130 FILLER_0_33_113
*1131 FILLER_0_33_125
*1132 FILLER_0_33_137
*1133 FILLER_0_33_149
*1134 FILLER_0_33_15
*1135 FILLER_0_33_167
*1136 FILLER_0_33_182
*1137 FILLER_0_33_216
*1138 FILLER_0_33_252
*1139 FILLER_0_33_264
*1140 FILLER_0_33_268
*1141 FILLER_0_33_27
*1142 FILLER_0_33_290
*1143 FILLER_0_33_294
*1144 FILLER_0_33_3
*1145 FILLER_0_33_330
*1146 FILLER_0_33_334
*1147 FILLER_0_33_39
*1148 FILLER_0_33_51
*1149 FILLER_0_33_55
*1150 FILLER_0_33_57
*1151 FILLER_0_33_69
*1152 FILLER_0_33_81
*1153 FILLER_0_33_93
*1154 FILLER_0_34_109
*1155 FILLER_0_34_121
*1156 FILLER_0_34_133
*1157 FILLER_0_34_139
*1158 FILLER_0_34_141
*1159 FILLER_0_34_149
*1160 FILLER_0_34_15
*1161 FILLER_0_34_179
*1162 FILLER_0_34_214
*1163 FILLER_0_34_226
*1164 FILLER_0_34_234
*1165 FILLER_0_34_256
*1166 FILLER_0_34_268
*1167 FILLER_0_34_27
*1168 FILLER_0_34_29
*1169 FILLER_0_34_3
*1170 FILLER_0_34_301
*1171 FILLER_0_34_307
*1172 FILLER_0_34_312
*1173 FILLER_0_34_322
*1174 FILLER_0_34_334
*1175 FILLER_0_34_41
*1176 FILLER_0_34_53
*1177 FILLER_0_34_65
*1178 FILLER_0_34_77
*1179 FILLER_0_34_83
*1180 FILLER_0_34_85
*1181 FILLER_0_34_97
*1182 FILLER_0_35_105
*1183 FILLER_0_35_111
*1184 FILLER_0_35_113
*1185 FILLER_0_35_125
*1186 FILLER_0_35_137
*1187 FILLER_0_35_15
*1188 FILLER_0_35_175
*1189 FILLER_0_35_187
*1190 FILLER_0_35_205
*1191 FILLER_0_35_217
*1192 FILLER_0_35_223
*1193 FILLER_0_35_225
*1194 FILLER_0_35_237
*1195 FILLER_0_35_246
*1196 FILLER_0_35_252
*1197 FILLER_0_35_263
*1198 FILLER_0_35_27
*1199 FILLER_0_35_275
*1200 FILLER_0_35_279
*1201 FILLER_0_35_284
*1202 FILLER_0_35_3
*1203 FILLER_0_35_333
*1204 FILLER_0_35_39
*1205 FILLER_0_35_51
*1206 FILLER_0_35_55
*1207 FILLER_0_35_57
*1208 FILLER_0_35_69
*1209 FILLER_0_35_81
*1210 FILLER_0_35_93
*1211 FILLER_0_36_109
*1212 FILLER_0_36_121
*1213 FILLER_0_36_133
*1214 FILLER_0_36_139
*1215 FILLER_0_36_141
*1216 FILLER_0_36_149
*1217 FILLER_0_36_15
*1218 FILLER_0_36_189
*1219 FILLER_0_36_195
*1220 FILLER_0_36_197
*1221 FILLER_0_36_218
*1222 FILLER_0_36_230
*1223 FILLER_0_36_242
*1224 FILLER_0_36_251
*1225 FILLER_0_36_253
*1226 FILLER_0_36_27
*1227 FILLER_0_36_274
*1228 FILLER_0_36_29
*1229 FILLER_0_36_3
*1230 FILLER_0_36_301
*1231 FILLER_0_36_307
*1232 FILLER_0_36_331
*1233 FILLER_0_36_41
*1234 FILLER_0_36_53
*1235 FILLER_0_36_65
*1236 FILLER_0_36_77
*1237 FILLER_0_36_83
*1238 FILLER_0_36_85
*1239 FILLER_0_36_97
*1240 FILLER_0_37_105
*1241 FILLER_0_37_111
*1242 FILLER_0_37_113
*1243 FILLER_0_37_125
*1244 FILLER_0_37_133
*1245 FILLER_0_37_140
*1246 FILLER_0_37_146
*1247 FILLER_0_37_15
*1248 FILLER_0_37_150
*1249 FILLER_0_37_172
*1250 FILLER_0_37_178
*1251 FILLER_0_37_190
*1252 FILLER_0_37_223
*1253 FILLER_0_37_225
*1254 FILLER_0_37_27
*1255 FILLER_0_37_275
*1256 FILLER_0_37_279
*1257 FILLER_0_37_281
*1258 FILLER_0_37_3
*1259 FILLER_0_37_312
*1260 FILLER_0_37_331
*1261 FILLER_0_37_39
*1262 FILLER_0_37_51
*1263 FILLER_0_37_55
*1264 FILLER_0_37_57
*1265 FILLER_0_37_69
*1266 FILLER_0_37_81
*1267 FILLER_0_37_93
*1268 FILLER_0_38_10
*1269 FILLER_0_38_102
*1270 FILLER_0_38_106
*1271 FILLER_0_38_110
*1272 FILLER_0_38_113
*1273 FILLER_0_38_118
*1274 FILLER_0_38_122
*1275 FILLER_0_38_126
*1276 FILLER_0_38_138
*1277 FILLER_0_38_14
*1278 FILLER_0_38_141
*1279 FILLER_0_38_150
*1280 FILLER_0_38_154
*1281 FILLER_0_38_158
*1282 FILLER_0_38_167
*1283 FILLER_0_38_169
*1284 FILLER_0_38_174
*1285 FILLER_0_38_18
*1286 FILLER_0_38_186
*1287 FILLER_0_38_194
*1288 FILLER_0_38_197
*1289 FILLER_0_38_201
*1290 FILLER_0_38_213
*1291 FILLER_0_38_22
*1292 FILLER_0_38_221
*1293 FILLER_0_38_225
*1294 FILLER_0_38_237
*1295 FILLER_0_38_250
*1296 FILLER_0_38_263
*1297 FILLER_0_38_270
*1298 FILLER_0_38_278
*1299 FILLER_0_38_281
*1300 FILLER_0_38_305
*1301 FILLER_0_38_32
*1302 FILLER_0_38_331
*1303 FILLER_0_38_38
*1304 FILLER_0_38_42
*1305 FILLER_0_38_46
*1306 FILLER_0_38_50
*1307 FILLER_0_38_54
*1308 FILLER_0_38_57
*1309 FILLER_0_38_6
*1310 FILLER_0_38_62
*1311 FILLER_0_38_66
*1312 FILLER_0_38_70
*1313 FILLER_0_38_74
*1314 FILLER_0_38_78
*1315 FILLER_0_38_88
*1316 FILLER_0_38_94
*1317 FILLER_0_38_98
*1318 FILLER_0_3_105
*1319 FILLER_0_3_111
*1320 FILLER_0_3_113
*1321 FILLER_0_3_125
*1322 FILLER_0_3_137
*1323 FILLER_0_3_149
*1324 FILLER_0_3_15
*1325 FILLER_0_3_161
*1326 FILLER_0_3_167
*1327 FILLER_0_3_169
*1328 FILLER_0_3_181
*1329 FILLER_0_3_193
*1330 FILLER_0_3_205
*1331 FILLER_0_3_217
*1332 FILLER_0_3_223
*1333 FILLER_0_3_225
*1334 FILLER_0_3_237
*1335 FILLER_0_3_249
*1336 FILLER_0_3_261
*1337 FILLER_0_3_27
*1338 FILLER_0_3_273
*1339 FILLER_0_3_279
*1340 FILLER_0_3_281
*1341 FILLER_0_3_293
*1342 FILLER_0_3_3
*1343 FILLER_0_3_305
*1344 FILLER_0_3_317
*1345 FILLER_0_3_329
*1346 FILLER_0_3_39
*1347 FILLER_0_3_51
*1348 FILLER_0_3_55
*1349 FILLER_0_3_57
*1350 FILLER_0_3_69
*1351 FILLER_0_3_81
*1352 FILLER_0_3_93
*1353 FILLER_0_4_109
*1354 FILLER_0_4_121
*1355 FILLER_0_4_133
*1356 FILLER_0_4_139
*1357 FILLER_0_4_141
*1358 FILLER_0_4_15
*1359 FILLER_0_4_153
*1360 FILLER_0_4_165
*1361 FILLER_0_4_177
*1362 FILLER_0_4_189
*1363 FILLER_0_4_195
*1364 FILLER_0_4_197
*1365 FILLER_0_4_209
*1366 FILLER_0_4_221
*1367 FILLER_0_4_233
*1368 FILLER_0_4_245
*1369 FILLER_0_4_251
*1370 FILLER_0_4_253
*1371 FILLER_0_4_265
*1372 FILLER_0_4_27
*1373 FILLER_0_4_277
*1374 FILLER_0_4_289
*1375 FILLER_0_4_29
*1376 FILLER_0_4_3
*1377 FILLER_0_4_301
*1378 FILLER_0_4_307
*1379 FILLER_0_4_309
*1380 FILLER_0_4_321
*1381 FILLER_0_4_333
*1382 FILLER_0_4_41
*1383 FILLER_0_4_53
*1384 FILLER_0_4_65
*1385 FILLER_0_4_77
*1386 FILLER_0_4_83
*1387 FILLER_0_4_85
*1388 FILLER_0_4_97
*1389 FILLER_0_5_105
*1390 FILLER_0_5_111
*1391 FILLER_0_5_113
*1392 FILLER_0_5_125
*1393 FILLER_0_5_137
*1394 FILLER_0_5_149
*1395 FILLER_0_5_15
*1396 FILLER_0_5_161
*1397 FILLER_0_5_167
*1398 FILLER_0_5_169
*1399 FILLER_0_5_181
*1400 FILLER_0_5_193
*1401 FILLER_0_5_205
*1402 FILLER_0_5_217
*1403 FILLER_0_5_223
*1404 FILLER_0_5_225
*1405 FILLER_0_5_237
*1406 FILLER_0_5_249
*1407 FILLER_0_5_261
*1408 FILLER_0_5_27
*1409 FILLER_0_5_273
*1410 FILLER_0_5_279
*1411 FILLER_0_5_281
*1412 FILLER_0_5_293
*1413 FILLER_0_5_3
*1414 FILLER_0_5_305
*1415 FILLER_0_5_317
*1416 FILLER_0_5_329
*1417 FILLER_0_5_39
*1418 FILLER_0_5_51
*1419 FILLER_0_5_55
*1420 FILLER_0_5_57
*1421 FILLER_0_5_69
*1422 FILLER_0_5_81
*1423 FILLER_0_5_93
*1424 FILLER_0_6_109
*1425 FILLER_0_6_121
*1426 FILLER_0_6_133
*1427 FILLER_0_6_139
*1428 FILLER_0_6_141
*1429 FILLER_0_6_15
*1430 FILLER_0_6_153
*1431 FILLER_0_6_165
*1432 FILLER_0_6_177
*1433 FILLER_0_6_189
*1434 FILLER_0_6_195
*1435 FILLER_0_6_197
*1436 FILLER_0_6_209
*1437 FILLER_0_6_221
*1438 FILLER_0_6_233
*1439 FILLER_0_6_245
*1440 FILLER_0_6_251
*1441 FILLER_0_6_253
*1442 FILLER_0_6_265
*1443 FILLER_0_6_27
*1444 FILLER_0_6_277
*1445 FILLER_0_6_289
*1446 FILLER_0_6_29
*1447 FILLER_0_6_3
*1448 FILLER_0_6_301
*1449 FILLER_0_6_307
*1450 FILLER_0_6_309
*1451 FILLER_0_6_321
*1452 FILLER_0_6_333
*1453 FILLER_0_6_41
*1454 FILLER_0_6_53
*1455 FILLER_0_6_65
*1456 FILLER_0_6_77
*1457 FILLER_0_6_83
*1458 FILLER_0_6_85
*1459 FILLER_0_6_97
*1460 FILLER_0_7_105
*1461 FILLER_0_7_111
*1462 FILLER_0_7_113
*1463 FILLER_0_7_125
*1464 FILLER_0_7_137
*1465 FILLER_0_7_149
*1466 FILLER_0_7_15
*1467 FILLER_0_7_161
*1468 FILLER_0_7_167
*1469 FILLER_0_7_169
*1470 FILLER_0_7_181
*1471 FILLER_0_7_193
*1472 FILLER_0_7_205
*1473 FILLER_0_7_217
*1474 FILLER_0_7_223
*1475 FILLER_0_7_225
*1476 FILLER_0_7_237
*1477 FILLER_0_7_249
*1478 FILLER_0_7_261
*1479 FILLER_0_7_27
*1480 FILLER_0_7_273
*1481 FILLER_0_7_279
*1482 FILLER_0_7_281
*1483 FILLER_0_7_293
*1484 FILLER_0_7_3
*1485 FILLER_0_7_305
*1486 FILLER_0_7_317
*1487 FILLER_0_7_329
*1488 FILLER_0_7_39
*1489 FILLER_0_7_51
*1490 FILLER_0_7_55
*1491 FILLER_0_7_57
*1492 FILLER_0_7_69
*1493 FILLER_0_7_81
*1494 FILLER_0_7_93
*1495 FILLER_0_8_109
*1496 FILLER_0_8_121
*1497 FILLER_0_8_133
*1498 FILLER_0_8_139
*1499 FILLER_0_8_141
*1500 FILLER_0_8_15
*1501 FILLER_0_8_153
*1502 FILLER_0_8_165
*1503 FILLER_0_8_177
*1504 FILLER_0_8_189
*1505 FILLER_0_8_195
*1506 FILLER_0_8_197
*1507 FILLER_0_8_209
*1508 FILLER_0_8_221
*1509 FILLER_0_8_233
*1510 FILLER_0_8_245
*1511 FILLER_0_8_251
*1512 FILLER_0_8_253
*1513 FILLER_0_8_265
*1514 FILLER_0_8_27
*1515 FILLER_0_8_277
*1516 FILLER_0_8_289
*1517 FILLER_0_8_29
*1518 FILLER_0_8_3
*1519 FILLER_0_8_301
*1520 FILLER_0_8_307
*1521 FILLER_0_8_309
*1522 FILLER_0_8_321
*1523 FILLER_0_8_333