*SPEF "ieee 1481-1999"
*DESIGN "tt_um_dlmiles_poc_fskmodem_hdlctrx"
*DATE "06:02:47 Friday April 19, 2024"
*VENDOR "The OpenROAD Project"
*PROGRAM "OpenROAD"
*VERSION "0889970d1790a2617e69f253221b8bd7626e51dc"
*DESIGN_FLOW "NAME_SCOPE LOCAL" "PIN_CAP NONE"
*DIVIDER /
*DELIMITER :
*BUS_DELIMITER []
*T_UNIT 1 NS
*C_UNIT 1 PF
*R_UNIT 1 OHM
*L_UNIT 1 HENRY

*NAME_MAP
*3 clk
*4 ena
*5 rst_n
*6 ui_in[0]
*7 ui_in[1]
*8 ui_in[2]
*9 ui_in[3]
*10 ui_in[4]
*11 ui_in[5]
*12 ui_in[6]
*13 ui_in[7]
*14 uio_in[0]
*15 uio_in[1]
*16 uio_in[2]
*17 uio_in[3]
*18 uio_in[4]
*19 uio_in[5]
*20 uio_in[6]
*21 uio_in[7]
*22 uio_oe[0]
*23 uio_oe[1]
*24 uio_oe[2]
*25 uio_oe[3]
*26 uio_oe[4]
*27 uio_oe[5]
*28 uio_oe[6]
*29 uio_oe[7]
*30 uio_out[0]
*31 uio_out[1]
*32 uio_out[2]
*33 uio_out[3]
*34 uio_out[4]
*35 uio_out[5]
*36 uio_out[6]
*37 uio_out[7]
*38 uo_out[0]
*39 uo_out[1]
*40 uo_out[2]
*41 net9
*42 net10
*43 net11
*44 net12
*45 uo_out[7]
*46 _000_
*47 _001_
*48 _002_
*49 _003_
*50 _004_
*51 _005_
*52 _006_
*53 _007_
*54 _008_
*55 _009_
*56 _010_
*57 _011_
*58 _012_
*59 _013_
*60 _014_
*61 _015_
*62 _016_
*63 _017_
*64 _018_
*65 _019_
*66 _020_
*67 _021_
*68 _022_
*69 _023_
*70 _024_
*71 _025_
*72 _026_
*73 _027_
*74 _028_
*75 _029_
*76 _030_
*77 _031_
*78 _032_
*79 _033_
*80 _034_
*81 _035_
*82 _036_
*83 _037_
*84 _038_
*85 _039_
*86 _040_
*87 _041_
*88 _042_
*89 _043_
*90 _044_
*91 _045_
*92 _046_
*93 _047_
*94 _048_
*95 _049_
*96 _050_
*97 _051_
*98 _052_
*99 _053_
*100 _054_
*101 _055_
*102 _056_
*103 _057_
*104 _058_
*105 _059_
*106 _060_
*107 _061_
*108 _062_
*109 _063_
*110 _064_
*111 _065_
*112 _066_
*113 _067_
*114 _068_
*115 _069_
*116 _070_
*117 _071_
*118 _072_
*119 _073_
*120 _074_
*121 _075_
*122 _076_
*123 _077_
*124 _078_
*125 _079_
*126 _080_
*127 _081_
*128 _082_
*129 _083_
*130 _084_
*131 _085_
*132 _086_
*133 _087_
*134 _088_
*135 _089_
*136 _090_
*137 _091_
*138 _092_
*139 _093_
*140 _094_
*141 _095_
*142 _096_
*143 _097_
*144 _098_
*145 _099_
*146 _100_
*147 _101_
*148 _102_
*149 _103_
*150 _104_
*151 _105_
*152 _106_
*153 _107_
*154 _108_
*155 _109_
*156 _110_
*157 _111_
*158 _112_
*159 _113_
*160 _114_
*161 _115_
*162 _116_
*163 _117_
*164 _118_
*165 _119_
*166 _120_
*167 _121_
*168 _122_
*169 _123_
*170 _124_
*171 _125_
*172 _126_
*173 _127_
*174 _128_
*175 _129_
*176 _130_
*177 _131_
*178 _132_
*179 _133_
*180 _134_
*181 _135_
*182 _136_
*183 _137_
*184 _138_
*185 _139_
*186 _140_
*187 _141_
*188 _142_
*189 _143_
*190 _144_
*191 _145_
*192 _146_
*193 _147_
*194 _148_
*195 _149_
*196 _150_
*197 _151_
*198 _152_
*199 _153_
*200 _154_
*201 _155_
*202 _156_
*203 _157_
*204 _158_
*205 _159_
*206 _160_
*207 _161_
*208 _162_
*209 _163_
*210 _164_
*211 _165_
*212 _166_
*213 _167_
*214 _168_
*215 _169_
*216 _170_
*217 _171_
*218 _172_
*219 _173_
*220 _174_
*221 _175_
*222 _176_
*223 _177_
*224 _178_
*225 _179_
*226 _180_
*227 _181_
*228 _182_
*229 _183_
*230 _184_
*231 _185_
*232 _186_
*233 _187_
*234 _188_
*235 _189_
*236 _190_
*237 _191_
*238 _192_
*239 _193_
*240 _194_
*241 _195_
*242 _196_
*243 _197_
*244 _198_
*245 _199_
*246 _200_
*247 _201_
*248 _202_
*249 _203_
*250 _204_
*251 _205_
*252 _206_
*253 _207_
*254 _208_
*255 _209_
*256 _210_
*257 _211_
*258 _212_
*259 _213_
*260 _214_
*261 _215_
*262 _216_
*263 _217_
*264 _218_
*265 _219_
*266 _220_
*267 _221_
*268 _222_
*269 _223_
*270 _224_
*271 _225_
*272 _226_
*273 _227_
*274 _228_
*275 _229_
*276 _230_
*277 _231_
*278 _232_
*279 _233_
*280 _234_
*281 _235_
*282 _236_
*283 _237_
*284 _238_
*285 _239_
*286 _240_
*287 _241_
*288 _242_
*289 clknet_0_clk
*290 clknet_3_0__leaf_clk
*291 clknet_3_1__leaf_clk
*292 clknet_3_2__leaf_clk
*293 clknet_3_3__leaf_clk
*294 clknet_3_4__leaf_clk
*295 clknet_3_5__leaf_clk
*296 clknet_3_6__leaf_clk
*297 clknet_3_7__leaf_clk
*298 modem\.cfgAddrDirection
*299 modem\.cfgRxClockDirection
*300 modem\.cfgTableLatency
*301 modem\.cfgUartTxPrescale
*302 modem\.cfgUpDownSource
*303 modem\.control\._zz_rxClockFixedStb
*304 modem\.control\._zz_txAddr12_1
*305 modem\.control\._zz_txAddr12_4
*306 modem\.control\._zz_txClockInternalFallStb
*307 modem\.control\._zz_txClockInternalFallStb_regNext
*308 modem\.control\._zz_txClockStb
*309 modem\.control\._zz_txClockStb_regNext
*310 modem\.control\.io_rxClock
*311 modem\.control\.io_rxDac8\[7\]
*312 modem\.control\.io_txClockStb
*313 modem\.control\.io_txDataIn
*314 modem\.control\.io_upDownOut
*315 modem\.control\.phase\[0\]
*316 modem\.control\.rst_n
*317 modem\.control\.rxAddr\[0\]
*318 modem\.control\.rxAddr\[10\]
*319 modem\.control\.rxAddr\[11\]
*320 modem\.control\.rxAddr\[1\]
*321 modem\.control\.rxAddr\[4\]
*322 modem\.control\.rxAddr\[5\]
*323 modem\.control\.rxAddr\[6\]
*324 modem\.control\.rxAddr\[7\]
*325 modem\.control\.rxAddr\[8\]
*326 modem\.control\.rxAddr\[9\]
*327 modem\.control\.rxRcrDacTmp\[3\]
*328 modem\.control\.scrambler_1\._zz__zz_io_vecOut_0_1
*329 modem\.control\.scrambler_1\.io_dataIn
*330 modem\.control\.scrambler_1\.io_dataOut
*331 modem\.control\.scrambler_1\.io_vecOut_0
*332 modem\.control\.scrambler_1\.io_vecOut_1
*333 modem\.control\.scrambler_1\.io_vecOut_10
*334 modem\.control\.scrambler_1\.io_vecOut_11
*335 modem\.control\.scrambler_1\.io_vecOut_12
*336 modem\.control\.scrambler_1\.io_vecOut_13
*337 modem\.control\.scrambler_1\.io_vecOut_14
*338 modem\.control\.scrambler_1\.io_vecOut_15
*339 modem\.control\.scrambler_1\.io_vecOut_2
*340 modem\.control\.scrambler_1\.io_vecOut_3
*341 modem\.control\.scrambler_1\.io_vecOut_7
*342 modem\.control\.scrambler_1\.io_vecOut_8
*343 modem\.control\.scrambler_1\.io_vecOut_9
*344 modem\.control\.scrambler_1\.vec_16
*345 modem\.control\.tablePhase\[3\]
*346 modem\.control\.tablePhase\[4\]
*347 modem\.control\.tablePhase\[5\]
*348 modem\.control\.zeroCrossDet_0
*349 modem\.control\.zeroCrossDet_1
*350 modem\.control\.zeroCrossDet_2
*351 modem\.control\.zeroCrossDet_3
*352 modem\.control\.zeroCrossDet_4
*353 modem\.control\.zeroCrossDet_5
*354 modem\.control\.zeroCrossDet_6
*355 modem\.control\.zeroCrossDet_7
*356 modem\.dcdHistory_1
*357 modem\.dcdHistory_2
*358 modem\.dcdHistory_3
*359 modem\.dcdHistory_4
*360 modem\.dcdHistory_5
*361 modem\.dcdHistory_6
*362 modem\.dcdHistory_7
*363 modem\.fakeDcd
*364 modem\.latched\[5\]
*365 modem\.latched\[6\]
*366 modem\.latched\[7\]
*367 modem\.uart\.io_uartCtsOut
*368 modem\.uart\.tx\.bitId\[0\]
*369 modem\.uart\.tx\.bitId\[1\]
*370 modem\.uart\.tx\.bitId\[2\]
*371 modem\.uart\.tx\.fsmUartTx_stateReg\[0\]
*372 modem\.uart\.tx\.fsmUartTx_stateReg\[1\]
*373 modem\.uart\.tx\.fsmUartTx_stateReg\[2\]
*374 modem\.uart\.tx\.fsmUartTx_stateReg\[3\]
*375 modem\.uart\.tx\.fsmUartTx_stateReg\[4\]
*376 modem\.uart\.txFifo\.count\[0\]
*377 modem\.uart\.txFifo\.count\[1\]
*378 modem\.uart\.txFifo\.count\[2\]
*379 net1
*380 net13
*381 net14
*382 net15
*383 net16
*384 net17
*385 net18
*386 net19
*387 net2
*388 net20
*389 net21
*390 net22
*391 net23
*392 net24
*393 net25
*394 net26
*395 net27
*396 net28
*397 net29
*398 net3
*399 net30
*400 net31
*401 net32
*402 net33
*403 net34
*404 net35
*405 net36
*406 net37
*407 net38
*408 net39
*409 net4
*410 net40
*411 net41
*412 net42
*413 net43
*414 net44
*415 net45
*416 net46
*417 net47
*418 net48
*419 net49
*420 net5
*421 net50
*422 net51
*423 net52
*424 net53
*425 net54
*426 net55
*427 net56
*428 net57
*429 net58
*430 net59
*431 net6
*432 net60
*433 net61
*434 net62
*435 net63
*436 net64
*437 net65
*438 net66
*439 net67
*440 net68
*441 net69
*442 net7
*443 net70
*444 net8
*445 FILLER_0_0_109
*446 FILLER_0_0_113
*447 FILLER_0_0_125
*448 FILLER_0_0_137
*449 FILLER_0_0_141
*450 FILLER_0_0_15
*451 FILLER_0_0_153
*452 FILLER_0_0_165
*453 FILLER_0_0_169
*454 FILLER_0_0_181
*455 FILLER_0_0_193
*456 FILLER_0_0_197
*457 FILLER_0_0_209
*458 FILLER_0_0_221
*459 FILLER_0_0_225
*460 FILLER_0_0_237
*461 FILLER_0_0_249
*462 FILLER_0_0_253
*463 FILLER_0_0_265
*464 FILLER_0_0_27
*465 FILLER_0_0_277
*466 FILLER_0_0_281
*467 FILLER_0_0_29
*468 FILLER_0_0_293
*469 FILLER_0_0_3
*470 FILLER_0_0_305
*471 FILLER_0_0_309
*472 FILLER_0_0_321
*473 FILLER_0_0_333
*474 FILLER_0_0_41
*475 FILLER_0_0_53
*476 FILLER_0_0_57
*477 FILLER_0_0_69
*478 FILLER_0_0_81
*479 FILLER_0_0_85
*480 FILLER_0_0_97
*481 FILLER_0_10_109
*482 FILLER_0_10_121
*483 FILLER_0_10_133
*484 FILLER_0_10_139
*485 FILLER_0_10_141
*486 FILLER_0_10_15
*487 FILLER_0_10_153
*488 FILLER_0_10_165
*489 FILLER_0_10_177
*490 FILLER_0_10_189
*491 FILLER_0_10_195
*492 FILLER_0_10_197
*493 FILLER_0_10_209
*494 FILLER_0_10_221
*495 FILLER_0_10_233
*496 FILLER_0_10_245
*497 FILLER_0_10_251
*498 FILLER_0_10_253
*499 FILLER_0_10_265
*500 FILLER_0_10_27
*501 FILLER_0_10_277
*502 FILLER_0_10_289
*503 FILLER_0_10_29
*504 FILLER_0_10_3
*505 FILLER_0_10_301
*506 FILLER_0_10_307
*507 FILLER_0_10_309
*508 FILLER_0_10_321
*509 FILLER_0_10_333
*510 FILLER_0_10_41
*511 FILLER_0_10_53
*512 FILLER_0_10_65
*513 FILLER_0_10_77
*514 FILLER_0_10_83
*515 FILLER_0_10_85
*516 FILLER_0_10_97
*517 FILLER_0_11_105
*518 FILLER_0_11_111
*519 FILLER_0_11_113
*520 FILLER_0_11_125
*521 FILLER_0_11_137
*522 FILLER_0_11_149
*523 FILLER_0_11_15
*524 FILLER_0_11_161
*525 FILLER_0_11_167
*526 FILLER_0_11_169
*527 FILLER_0_11_181
*528 FILLER_0_11_193
*529 FILLER_0_11_205
*530 FILLER_0_11_217
*531 FILLER_0_11_223
*532 FILLER_0_11_225
*533 FILLER_0_11_237
*534 FILLER_0_11_249
*535 FILLER_0_11_261
*536 FILLER_0_11_27
*537 FILLER_0_11_273
*538 FILLER_0_11_279
*539 FILLER_0_11_281
*540 FILLER_0_11_293
*541 FILLER_0_11_3
*542 FILLER_0_11_305
*543 FILLER_0_11_317
*544 FILLER_0_11_329
*545 FILLER_0_11_39
*546 FILLER_0_11_51
*547 FILLER_0_11_55
*548 FILLER_0_11_57
*549 FILLER_0_11_69
*550 FILLER_0_11_81
*551 FILLER_0_11_93
*552 FILLER_0_12_109
*553 FILLER_0_12_121
*554 FILLER_0_12_133
*555 FILLER_0_12_139
*556 FILLER_0_12_141
*557 FILLER_0_12_15
*558 FILLER_0_12_153
*559 FILLER_0_12_165
*560 FILLER_0_12_177
*561 FILLER_0_12_189
*562 FILLER_0_12_195
*563 FILLER_0_12_197
*564 FILLER_0_12_209
*565 FILLER_0_12_221
*566 FILLER_0_12_233
*567 FILLER_0_12_245
*568 FILLER_0_12_251
*569 FILLER_0_12_253
*570 FILLER_0_12_265
*571 FILLER_0_12_27
*572 FILLER_0_12_277
*573 FILLER_0_12_289
*574 FILLER_0_12_29
*575 FILLER_0_12_3
*576 FILLER_0_12_301
*577 FILLER_0_12_307
*578 FILLER_0_12_309
*579 FILLER_0_12_321
*580 FILLER_0_12_333
*581 FILLER_0_12_41
*582 FILLER_0_12_53
*583 FILLER_0_12_65
*584 FILLER_0_12_77
*585 FILLER_0_12_83
*586 FILLER_0_12_85
*587 FILLER_0_12_97
*588 FILLER_0_13_105
*589 FILLER_0_13_111
*590 FILLER_0_13_113
*591 FILLER_0_13_125
*592 FILLER_0_13_137
*593 FILLER_0_13_149
*594 FILLER_0_13_15
*595 FILLER_0_13_161
*596 FILLER_0_13_167
*597 FILLER_0_13_169
*598 FILLER_0_13_181
*599 FILLER_0_13_193
*600 FILLER_0_13_205
*601 FILLER_0_13_217
*602 FILLER_0_13_223
*603 FILLER_0_13_225
*604 FILLER_0_13_237
*605 FILLER_0_13_249
*606 FILLER_0_13_261
*607 FILLER_0_13_27
*608 FILLER_0_13_273
*609 FILLER_0_13_279
*610 FILLER_0_13_281
*611 FILLER_0_13_293
*612 FILLER_0_13_3
*613 FILLER_0_13_305
*614 FILLER_0_13_317
*615 FILLER_0_13_329
*616 FILLER_0_13_39
*617 FILLER_0_13_51
*618 FILLER_0_13_55
*619 FILLER_0_13_57
*620 FILLER_0_13_69
*621 FILLER_0_13_81
*622 FILLER_0_13_93
*623 FILLER_0_14_109
*624 FILLER_0_14_121
*625 FILLER_0_14_133
*626 FILLER_0_14_139
*627 FILLER_0_14_141
*628 FILLER_0_14_15
*629 FILLER_0_14_153
*630 FILLER_0_14_165
*631 FILLER_0_14_177
*632 FILLER_0_14_189
*633 FILLER_0_14_195
*634 FILLER_0_14_197
*635 FILLER_0_14_209
*636 FILLER_0_14_221
*637 FILLER_0_14_233
*638 FILLER_0_14_245
*639 FILLER_0_14_251
*640 FILLER_0_14_253
*641 FILLER_0_14_265
*642 FILLER_0_14_27
*643 FILLER_0_14_277
*644 FILLER_0_14_289
*645 FILLER_0_14_29
*646 FILLER_0_14_3
*647 FILLER_0_14_301
*648 FILLER_0_14_307
*649 FILLER_0_14_309
*650 FILLER_0_14_321
*651 FILLER_0_14_333
*652 FILLER_0_14_41
*653 FILLER_0_14_53
*654 FILLER_0_14_65
*655 FILLER_0_14_77
*656 FILLER_0_14_83
*657 FILLER_0_14_85
*658 FILLER_0_14_97
*659 FILLER_0_15_105
*660 FILLER_0_15_111
*661 FILLER_0_15_113
*662 FILLER_0_15_125
*663 FILLER_0_15_137
*664 FILLER_0_15_149
*665 FILLER_0_15_15
*666 FILLER_0_15_161
*667 FILLER_0_15_167
*668 FILLER_0_15_169
*669 FILLER_0_15_181
*670 FILLER_0_15_193
*671 FILLER_0_15_205
*672 FILLER_0_15_217
*673 FILLER_0_15_223
*674 FILLER_0_15_225
*675 FILLER_0_15_237
*676 FILLER_0_15_249
*677 FILLER_0_15_261
*678 FILLER_0_15_27
*679 FILLER_0_15_273
*680 FILLER_0_15_279
*681 FILLER_0_15_281
*682 FILLER_0_15_293
*683 FILLER_0_15_3
*684 FILLER_0_15_305
*685 FILLER_0_15_317
*686 FILLER_0_15_329
*687 FILLER_0_15_39
*688 FILLER_0_15_51
*689 FILLER_0_15_55
*690 FILLER_0_15_57
*691 FILLER_0_15_69
*692 FILLER_0_15_81
*693 FILLER_0_15_93
*694 FILLER_0_16_109
*695 FILLER_0_16_121
*696 FILLER_0_16_133
*697 FILLER_0_16_139
*698 FILLER_0_16_141
*699 FILLER_0_16_15
*700 FILLER_0_16_153
*701 FILLER_0_16_165
*702 FILLER_0_16_177
*703 FILLER_0_16_189
*704 FILLER_0_16_195
*705 FILLER_0_16_197
*706 FILLER_0_16_209
*707 FILLER_0_16_221
*708 FILLER_0_16_233
*709 FILLER_0_16_245
*710 FILLER_0_16_251
*711 FILLER_0_16_253
*712 FILLER_0_16_265
*713 FILLER_0_16_27
*714 FILLER_0_16_277
*715 FILLER_0_16_289
*716 FILLER_0_16_29
*717 FILLER_0_16_3
*718 FILLER_0_16_301
*719 FILLER_0_16_307
*720 FILLER_0_16_309
*721 FILLER_0_16_321
*722 FILLER_0_16_333
*723 FILLER_0_16_41
*724 FILLER_0_16_53
*725 FILLER_0_16_65
*726 FILLER_0_16_77
*727 FILLER_0_16_83
*728 FILLER_0_16_85
*729 FILLER_0_16_97
*730 FILLER_0_17_105
*731 FILLER_0_17_111
*732 FILLER_0_17_113
*733 FILLER_0_17_125
*734 FILLER_0_17_137
*735 FILLER_0_17_149
*736 FILLER_0_17_15
*737 FILLER_0_17_161
*738 FILLER_0_17_167
*739 FILLER_0_17_169
*740 FILLER_0_17_181
*741 FILLER_0_17_193
*742 FILLER_0_17_205
*743 FILLER_0_17_217
*744 FILLER_0_17_223
*745 FILLER_0_17_225
*746 FILLER_0_17_237
*747 FILLER_0_17_249
*748 FILLER_0_17_261
*749 FILLER_0_17_27
*750 FILLER_0_17_273
*751 FILLER_0_17_279
*752 FILLER_0_17_281
*753 FILLER_0_17_293
*754 FILLER_0_17_3
*755 FILLER_0_17_305
*756 FILLER_0_17_317
*757 FILLER_0_17_329
*758 FILLER_0_17_39
*759 FILLER_0_17_51
*760 FILLER_0_17_55
*761 FILLER_0_17_57
*762 FILLER_0_17_69
*763 FILLER_0_17_81
*764 FILLER_0_17_93
*765 FILLER_0_18_109
*766 FILLER_0_18_121
*767 FILLER_0_18_133
*768 FILLER_0_18_139
*769 FILLER_0_18_141
*770 FILLER_0_18_15
*771 FILLER_0_18_153
*772 FILLER_0_18_165
*773 FILLER_0_18_177
*774 FILLER_0_18_189
*775 FILLER_0_18_195
*776 FILLER_0_18_197
*777 FILLER_0_18_209
*778 FILLER_0_18_221
*779 FILLER_0_18_233
*780 FILLER_0_18_245
*781 FILLER_0_18_251
*782 FILLER_0_18_253
*783 FILLER_0_18_265
*784 FILLER_0_18_27
*785 FILLER_0_18_277
*786 FILLER_0_18_289
*787 FILLER_0_18_29
*788 FILLER_0_18_3
*789 FILLER_0_18_301
*790 FILLER_0_18_307
*791 FILLER_0_18_309
*792 FILLER_0_18_321
*793 FILLER_0_18_333
*794 FILLER_0_18_41
*795 FILLER_0_18_53
*796 FILLER_0_18_65
*797 FILLER_0_18_77
*798 FILLER_0_18_83
*799 FILLER_0_18_85
*800 FILLER_0_18_97
*801 FILLER_0_19_105
*802 FILLER_0_19_111
*803 FILLER_0_19_113
*804 FILLER_0_19_125
*805 FILLER_0_19_133
*806 FILLER_0_19_15
*807 FILLER_0_19_150
*808 FILLER_0_19_155
*809 FILLER_0_19_167
*810 FILLER_0_19_169
*811 FILLER_0_19_181
*812 FILLER_0_19_193
*813 FILLER_0_19_205
*814 FILLER_0_19_217
*815 FILLER_0_19_223
*816 FILLER_0_19_225
*817 FILLER_0_19_237
*818 FILLER_0_19_249
*819 FILLER_0_19_261
*820 FILLER_0_19_27
*821 FILLER_0_19_273
*822 FILLER_0_19_279
*823 FILLER_0_19_281
*824 FILLER_0_19_293
*825 FILLER_0_19_3
*826 FILLER_0_19_305
*827 FILLER_0_19_317
*828 FILLER_0_19_329
*829 FILLER_0_19_39
*830 FILLER_0_19_51
*831 FILLER_0_19_55
*832 FILLER_0_19_57
*833 FILLER_0_19_69
*834 FILLER_0_19_81
*835 FILLER_0_19_93
*836 FILLER_0_1_105
*837 FILLER_0_1_111
*838 FILLER_0_1_113
*839 FILLER_0_1_125
*840 FILLER_0_1_137
*841 FILLER_0_1_149
*842 FILLER_0_1_15
*843 FILLER_0_1_161
*844 FILLER_0_1_167
*845 FILLER_0_1_169
*846 FILLER_0_1_181
*847 FILLER_0_1_193
*848 FILLER_0_1_205
*849 FILLER_0_1_217
*850 FILLER_0_1_223
*851 FILLER_0_1_225
*852 FILLER_0_1_237
*853 FILLER_0_1_249
*854 FILLER_0_1_261
*855 FILLER_0_1_27
*856 FILLER_0_1_273
*857 FILLER_0_1_279
*858 FILLER_0_1_281
*859 FILLER_0_1_293
*860 FILLER_0_1_3
*861 FILLER_0_1_305
*862 FILLER_0_1_317
*863 FILLER_0_1_329
*864 FILLER_0_1_39
*865 FILLER_0_1_51
*866 FILLER_0_1_55
*867 FILLER_0_1_57
*868 FILLER_0_1_69
*869 FILLER_0_1_81
*870 FILLER_0_1_93
*871 FILLER_0_20_131
*872 FILLER_0_20_139
*873 FILLER_0_20_15
*874 FILLER_0_20_174
*875 FILLER_0_20_186
*876 FILLER_0_20_194
*877 FILLER_0_20_218
*878 FILLER_0_20_230
*879 FILLER_0_20_242
*880 FILLER_0_20_250
*881 FILLER_0_20_253
*882 FILLER_0_20_265
*883 FILLER_0_20_27
*884 FILLER_0_20_277
*885 FILLER_0_20_289
*886 FILLER_0_20_29
*887 FILLER_0_20_3
*888 FILLER_0_20_301
*889 FILLER_0_20_307
*890 FILLER_0_20_309
*891 FILLER_0_20_321
*892 FILLER_0_20_333
*893 FILLER_0_20_41
*894 FILLER_0_20_53
*895 FILLER_0_20_65
*896 FILLER_0_20_77
*897 FILLER_0_20_83
*898 FILLER_0_20_85
*899 FILLER_0_20_97
*900 FILLER_0_21_111
*901 FILLER_0_21_138
*902 FILLER_0_21_142
*903 FILLER_0_21_15
*904 FILLER_0_21_178
*905 FILLER_0_21_190
*906 FILLER_0_21_225
*907 FILLER_0_21_237
*908 FILLER_0_21_249
*909 FILLER_0_21_261
*910 FILLER_0_21_27
*911 FILLER_0_21_273
*912 FILLER_0_21_279
*913 FILLER_0_21_281
*914 FILLER_0_21_293
*915 FILLER_0_21_3
*916 FILLER_0_21_305
*917 FILLER_0_21_317
*918 FILLER_0_21_329
*919 FILLER_0_21_39
*920 FILLER_0_21_51
*921 FILLER_0_21_55
*922 FILLER_0_21_57
*923 FILLER_0_21_69
*924 FILLER_0_21_81
*925 FILLER_0_21_89
*926 FILLER_0_22_105
*927 FILLER_0_22_109
*928 FILLER_0_22_119
*929 FILLER_0_22_137
*930 FILLER_0_22_15
*931 FILLER_0_22_177
*932 FILLER_0_22_189
*933 FILLER_0_22_195
*934 FILLER_0_22_220
*935 FILLER_0_22_232
*936 FILLER_0_22_244
*937 FILLER_0_22_253
*938 FILLER_0_22_265
*939 FILLER_0_22_27
*940 FILLER_0_22_277
*941 FILLER_0_22_289
*942 FILLER_0_22_29
*943 FILLER_0_22_3
*944 FILLER_0_22_301
*945 FILLER_0_22_307
*946 FILLER_0_22_309
*947 FILLER_0_22_321
*948 FILLER_0_22_333
*949 FILLER_0_22_41
*950 FILLER_0_22_53
*951 FILLER_0_22_65
*952 FILLER_0_22_77
*953 FILLER_0_22_83
*954 FILLER_0_22_85
*955 FILLER_0_23_108
*956 FILLER_0_23_113
*957 FILLER_0_23_124
*958 FILLER_0_23_135
*959 FILLER_0_23_147
*960 FILLER_0_23_15
*961 FILLER_0_23_166
*962 FILLER_0_23_169
*963 FILLER_0_23_173
*964 FILLER_0_23_190
*965 FILLER_0_23_230
*966 FILLER_0_23_241
*967 FILLER_0_23_259
*968 FILLER_0_23_27
*969 FILLER_0_23_271
*970 FILLER_0_23_279
*971 FILLER_0_23_281
*972 FILLER_0_23_293
*973 FILLER_0_23_3
*974 FILLER_0_23_305
*975 FILLER_0_23_317
*976 FILLER_0_23_329
*977 FILLER_0_23_39
*978 FILLER_0_23_51
*979 FILLER_0_23_55
*980 FILLER_0_23_57
*981 FILLER_0_23_69
*982 FILLER_0_23_81
*983 FILLER_0_24_136
*984 FILLER_0_24_148
*985 FILLER_0_24_15
*986 FILLER_0_24_190
*987 FILLER_0_24_239
*988 FILLER_0_24_245
*989 FILLER_0_24_27
*990 FILLER_0_24_272
*991 FILLER_0_24_284
*992 FILLER_0_24_29
*993 FILLER_0_24_296
*994 FILLER_0_24_3
*995 FILLER_0_24_309
*996 FILLER_0_24_321
*997 FILLER_0_24_333
*998 FILLER_0_24_41
*999 FILLER_0_24_53
*1000 FILLER_0_24_65
*1001 FILLER_0_24_85
*1002 FILLER_0_25_124
*1003 FILLER_0_25_15
*1004 FILLER_0_25_169
*1005 FILLER_0_25_181
*1006 FILLER_0_25_210
*1007 FILLER_0_25_223
*1008 FILLER_0_25_225
*1009 FILLER_0_25_233
*1010 FILLER_0_25_27
*1011 FILLER_0_25_277
*1012 FILLER_0_25_281
*1013 FILLER_0_25_293
*1014 FILLER_0_25_3
*1015 FILLER_0_25_305
*1016 FILLER_0_25_317
*1017 FILLER_0_25_329
*1018 FILLER_0_25_39
*1019 FILLER_0_25_51
*1020 FILLER_0_25_55
*1021 FILLER_0_25_57
*1022 FILLER_0_25_69
*1023 FILLER_0_25_95
*1024 FILLER_0_26_128
*1025 FILLER_0_26_141
*1026 FILLER_0_26_15
*1027 FILLER_0_26_153
*1028 FILLER_0_26_176
*1029 FILLER_0_26_197
*1030 FILLER_0_26_201
*1031 FILLER_0_26_208
*1032 FILLER_0_26_218
*1033 FILLER_0_26_226
*1034 FILLER_0_26_27
*1035 FILLER_0_26_273
*1036 FILLER_0_26_285
*1037 FILLER_0_26_29
*1038 FILLER_0_26_297
*1039 FILLER_0_26_3
*1040 FILLER_0_26_305
*1041 FILLER_0_26_309
*1042 FILLER_0_26_321
*1043 FILLER_0_26_333
*1044 FILLER_0_26_41
*1045 FILLER_0_26_53
*1046 FILLER_0_26_61
*1047 FILLER_0_26_78
*1048 FILLER_0_26_85
*1049 FILLER_0_27_113
*1050 FILLER_0_27_15
*1051 FILLER_0_27_156
*1052 FILLER_0_27_166
*1053 FILLER_0_27_169
*1054 FILLER_0_27_173
*1055 FILLER_0_27_203
*1056 FILLER_0_27_215
*1057 FILLER_0_27_219
*1058 FILLER_0_27_241
*1059 FILLER_0_27_269
*1060 FILLER_0_27_27
*1061 FILLER_0_27_278
*1062 FILLER_0_27_281
*1063 FILLER_0_27_293
*1064 FILLER_0_27_3
*1065 FILLER_0_27_305
*1066 FILLER_0_27_317
*1067 FILLER_0_27_329
*1068 FILLER_0_27_39
*1069 FILLER_0_27_51
*1070 FILLER_0_27_55
*1071 FILLER_0_27_57
*1072 FILLER_0_27_95
*1073 FILLER_0_28_116
*1074 FILLER_0_28_124
*1075 FILLER_0_28_133
*1076 FILLER_0_28_138
*1077 FILLER_0_28_15
*1078 FILLER_0_28_160
*1079 FILLER_0_28_186
*1080 FILLER_0_28_194
*1081 FILLER_0_28_208
*1082 FILLER_0_28_220
*1083 FILLER_0_28_250
*1084 FILLER_0_28_259
*1085 FILLER_0_28_27
*1086 FILLER_0_28_29
*1087 FILLER_0_28_297
*1088 FILLER_0_28_3
*1089 FILLER_0_28_305
*1090 FILLER_0_28_309
*1091 FILLER_0_28_321
*1092 FILLER_0_28_333
*1093 FILLER_0_28_41
*1094 FILLER_0_28_53
*1095 FILLER_0_28_57
*1096 FILLER_0_28_83
*1097 FILLER_0_29_101
*1098 FILLER_0_29_11
*1099 FILLER_0_29_111
*1100 FILLER_0_29_123
*1101 FILLER_0_29_135
*1102 FILLER_0_29_157
*1103 FILLER_0_29_165
*1104 FILLER_0_29_169
*1105 FILLER_0_29_198
*1106 FILLER_0_29_210
*1107 FILLER_0_29_222
*1108 FILLER_0_29_225
*1109 FILLER_0_29_231
*1110 FILLER_0_29_239
*1111 FILLER_0_29_247
*1112 FILLER_0_29_255
*1113 FILLER_0_29_297
*1114 FILLER_0_29_3
*1115 FILLER_0_29_30
*1116 FILLER_0_29_308
*1117 FILLER_0_29_312
*1118 FILLER_0_29_332
*1119 FILLER_0_29_42
*1120 FILLER_0_29_50
*1121 FILLER_0_29_55
*1122 FILLER_0_29_57
*1123 FILLER_0_2_109
*1124 FILLER_0_2_121
*1125 FILLER_0_2_133
*1126 FILLER_0_2_139
*1127 FILLER_0_2_141
*1128 FILLER_0_2_15
*1129 FILLER_0_2_153
*1130 FILLER_0_2_165
*1131 FILLER_0_2_177
*1132 FILLER_0_2_189
*1133 FILLER_0_2_195
*1134 FILLER_0_2_197
*1135 FILLER_0_2_209
*1136 FILLER_0_2_221
*1137 FILLER_0_2_233
*1138 FILLER_0_2_245
*1139 FILLER_0_2_251
*1140 FILLER_0_2_253
*1141 FILLER_0_2_265
*1142 FILLER_0_2_27
*1143 FILLER_0_2_277
*1144 FILLER_0_2_289
*1145 FILLER_0_2_29
*1146 FILLER_0_2_3
*1147 FILLER_0_2_301
*1148 FILLER_0_2_307
*1149 FILLER_0_2_309
*1150 FILLER_0_2_321
*1151 FILLER_0_2_333
*1152 FILLER_0_2_41
*1153 FILLER_0_2_53
*1154 FILLER_0_2_65
*1155 FILLER_0_2_77
*1156 FILLER_0_2_83
*1157 FILLER_0_2_85
*1158 FILLER_0_2_97
*1159 FILLER_0_30_124
*1160 FILLER_0_30_136
*1161 FILLER_0_30_141
*1162 FILLER_0_30_162
*1163 FILLER_0_30_174
*1164 FILLER_0_30_195
*1165 FILLER_0_30_197
*1166 FILLER_0_30_209
*1167 FILLER_0_30_249
*1168 FILLER_0_30_253
*1169 FILLER_0_30_258
*1170 FILLER_0_30_288
*1171 FILLER_0_30_299
*1172 FILLER_0_30_3
*1173 FILLER_0_30_333
*1174 FILLER_0_30_37
*1175 FILLER_0_30_45
*1176 FILLER_0_30_82
*1177 FILLER_0_30_93
*1178 FILLER_0_31_11
*1179 FILLER_0_31_126
*1180 FILLER_0_31_167
*1181 FILLER_0_31_174
*1182 FILLER_0_31_188
*1183 FILLER_0_31_206
*1184 FILLER_0_31_212
*1185 FILLER_0_31_241
*1186 FILLER_0_31_253
*1187 FILLER_0_31_261
*1188 FILLER_0_31_281
*1189 FILLER_0_31_289
*1190 FILLER_0_31_3
*1191 FILLER_0_31_334
*1192 FILLER_0_31_36
*1193 FILLER_0_31_48
*1194 FILLER_0_31_57
*1195 FILLER_0_31_68
*1196 FILLER_0_31_80
*1197 FILLER_0_31_84
*1198 FILLER_0_31_97
*1199 FILLER_0_32_124
*1200 FILLER_0_32_132
*1201 FILLER_0_32_15
*1202 FILLER_0_32_153
*1203 FILLER_0_32_165
*1204 FILLER_0_32_179
*1205 FILLER_0_32_205
*1206 FILLER_0_32_217
*1207 FILLER_0_32_23
*1208 FILLER_0_32_232
*1209 FILLER_0_32_244
*1210 FILLER_0_32_269
*1211 FILLER_0_32_27
*1212 FILLER_0_32_29
*1213 FILLER_0_32_294
*1214 FILLER_0_32_3
*1215 FILLER_0_32_306
*1216 FILLER_0_32_309
*1217 FILLER_0_32_330
*1218 FILLER_0_32_334
*1219 FILLER_0_32_41
*1220 FILLER_0_32_45
*1221 FILLER_0_32_50
*1222 FILLER_0_32_74
*1223 FILLER_0_32_82
*1224 FILLER_0_32_85
*1225 FILLER_0_32_93
*1226 FILLER_0_33_120
*1227 FILLER_0_33_151
*1228 FILLER_0_33_163
*1229 FILLER_0_33_167
*1230 FILLER_0_33_176
*1231 FILLER_0_33_184
*1232 FILLER_0_33_202
*1233 FILLER_0_33_214
*1234 FILLER_0_33_222
*1235 FILLER_0_33_234
*1236 FILLER_0_33_245
*1237 FILLER_0_33_278
*1238 FILLER_0_33_281
*1239 FILLER_0_33_3
*1240 FILLER_0_33_332
*1241 FILLER_0_33_39
*1242 FILLER_0_33_51
*1243 FILLER_0_33_55
*1244 FILLER_0_33_57
*1245 FILLER_0_33_64
*1246 FILLER_0_33_74
*1247 FILLER_0_33_86
*1248 FILLER_0_34_101
*1249 FILLER_0_34_114
*1250 FILLER_0_34_121
*1251 FILLER_0_34_125
*1252 FILLER_0_34_132
*1253 FILLER_0_34_15
*1254 FILLER_0_34_153
*1255 FILLER_0_34_165
*1256 FILLER_0_34_169
*1257 FILLER_0_34_176
*1258 FILLER_0_34_19
*1259 FILLER_0_34_201
*1260 FILLER_0_34_209
*1261 FILLER_0_34_247
*1262 FILLER_0_34_25
*1263 FILLER_0_34_251
*1264 FILLER_0_34_253
*1265 FILLER_0_34_268
*1266 FILLER_0_34_279
*1267 FILLER_0_34_3
*1268 FILLER_0_34_302
*1269 FILLER_0_34_325
*1270 FILLER_0_34_38
*1271 FILLER_0_34_50
*1272 FILLER_0_34_58
*1273 FILLER_0_34_66
*1274 FILLER_0_34_73
*1275 FILLER_0_34_81
*1276 FILLER_0_34_85
*1277 FILLER_0_34_97
*1278 FILLER_0_35_111
*1279 FILLER_0_35_113
*1280 FILLER_0_35_121
*1281 FILLER_0_35_127
*1282 FILLER_0_35_139
*1283 FILLER_0_35_148
*1284 FILLER_0_35_160
*1285 FILLER_0_35_169
*1286 FILLER_0_35_177
*1287 FILLER_0_35_199
*1288 FILLER_0_35_211
*1289 FILLER_0_35_223
*1290 FILLER_0_35_228
*1291 FILLER_0_35_253
*1292 FILLER_0_35_261
*1293 FILLER_0_35_266
*1294 FILLER_0_35_274
*1295 FILLER_0_35_297
*1296 FILLER_0_35_3
*1297 FILLER_0_35_308
*1298 FILLER_0_35_334
*1299 FILLER_0_35_34
*1300 FILLER_0_35_38
*1301 FILLER_0_35_49
*1302 FILLER_0_35_82
*1303 FILLER_0_35_90
*1304 FILLER_0_36_109
*1305 FILLER_0_36_131
*1306 FILLER_0_36_139
*1307 FILLER_0_36_15
*1308 FILLER_0_36_156
*1309 FILLER_0_36_162
*1310 FILLER_0_36_180
*1311 FILLER_0_36_214
*1312 FILLER_0_36_250
*1313 FILLER_0_36_261
*1314 FILLER_0_36_265
*1315 FILLER_0_36_27
*1316 FILLER_0_36_278
*1317 FILLER_0_36_29
*1318 FILLER_0_36_3
*1319 FILLER_0_36_307
*1320 FILLER_0_36_309
*1321 FILLER_0_36_317
*1322 FILLER_0_36_321
*1323 FILLER_0_36_333
*1324 FILLER_0_36_41
*1325 FILLER_0_36_49
*1326 FILLER_0_36_83
*1327 FILLER_0_36_85
*1328 FILLER_0_37_102
*1329 FILLER_0_37_137
*1330 FILLER_0_37_156
*1331 FILLER_0_37_169
*1332 FILLER_0_37_188
*1333 FILLER_0_37_193
*1334 FILLER_0_37_205
*1335 FILLER_0_37_217
*1336 FILLER_0_37_23
*1337 FILLER_0_37_237
*1338 FILLER_0_37_265
*1339 FILLER_0_37_278
*1340 FILLER_0_37_28
*1341 FILLER_0_37_287
*1342 FILLER_0_37_3
*1343 FILLER_0_37_309
*1344 FILLER_0_37_319
*1345 FILLER_0_37_331
*1346 FILLER_0_37_35
*1347 FILLER_0_37_45
*1348 FILLER_0_37_51
*1349 FILLER_0_37_57
*1350 FILLER_0_37_79
*1351 FILLER_0_37_87
*1352 FILLER_0_38_108
*1353 FILLER_0_38_113
*1354 FILLER_0_38_125
*1355 FILLER_0_38_137
*1356 FILLER_0_38_144
*1357 FILLER_0_38_15
*1358 FILLER_0_38_150
*1359 FILLER_0_38_154
*1360 FILLER_0_38_158
*1361 FILLER_0_38_162
*1362 FILLER_0_38_166
*1363 FILLER_0_38_169
*1364 FILLER_0_38_189
*1365 FILLER_0_38_195
*1366 FILLER_0_38_197
*1367 FILLER_0_38_209
*1368 FILLER_0_38_217
*1369 FILLER_0_38_222
*1370 FILLER_0_38_225
*1371 FILLER_0_38_248
*1372 FILLER_0_38_253
*1373 FILLER_0_38_262
*1374 FILLER_0_38_268
*1375 FILLER_0_38_27
*1376 FILLER_0_38_278
*1377 FILLER_0_38_281
*1378 FILLER_0_38_29
*1379 FILLER_0_38_293
*1380 FILLER_0_38_3
*1381 FILLER_0_38_300
*1382 FILLER_0_38_312
*1383 FILLER_0_38_319
*1384 FILLER_0_38_326
*1385 FILLER_0_38_334
*1386 FILLER_0_38_41
*1387 FILLER_0_38_53
*1388 FILLER_0_38_57
*1389 FILLER_0_38_62
*1390 FILLER_0_38_74
*1391 FILLER_0_38_82
*1392 FILLER_0_38_85
*1393 FILLER_0_38_93
*1394 FILLER_0_3_105
*1395 FILLER_0_3_111
*1396 FILLER_0_3_113
*1397 FILLER_0_3_125
*1398 FILLER_0_3_137
*1399 FILLER_0_3_149
*1400 FILLER_0_3_15
*1401 FILLER_0_3_161
*1402 FILLER_0_3_167
*1403 FILLER_0_3_169
*1404 FILLER_0_3_181
*1405 FILLER_0_3_193
*1406 FILLER_0_3_205
*1407 FILLER_0_3_217
*1408 FILLER_0_3_223
*1409 FILLER_0_3_225
*1410 FILLER_0_3_237
*1411 FILLER_0_3_249
*1412 FILLER_0_3_261
*1413 FILLER_0_3_27
*1414 FILLER_0_3_273
*1415 FILLER_0_3_279
*1416 FILLER_0_3_281
*1417 FILLER_0_3_293
*1418 FILLER_0_3_3
*1419 FILLER_0_3_305
*1420 FILLER_0_3_317
*1421 FILLER_0_3_329
*1422 FILLER_0_3_39
*1423 FILLER_0_3_51
*1424 FILLER_0_3_55
*1425 FILLER_0_3_57
*1426 FILLER_0_3_69
*1427 FILLER_0_3_81
*1428 FILLER_0_3_93
*1429 FILLER_0_4_109
*1430 FILLER_0_4_121
*1431 FILLER_0_4_133
*1432 FILLER_0_4_139
*1433 FILLER_0_4_141
*1434 FILLER_0_4_15
*1435 FILLER_0_4_153
*1436 FILLER_0_4_165
*1437 FILLER_0_4_177
*1438 FILLER_0_4_189
*1439 FILLER_0_4_195
*1440 FILLER_0_4_197
*1441 FILLER_0_4_209
*1442 FILLER_0_4_221
*1443 FILLER_0_4_233
*1444 FILLER_0_4_245
*1445 FILLER_0_4_251
*1446 FILLER_0_4_253
*1447 FILLER_0_4_265
*1448 FILLER_0_4_27
*1449 FILLER_0_4_277
*1450 FILLER_0_4_289
*1451 FILLER_0_4_29
*1452 FILLER_0_4_3
*1453 FILLER_0_4_301
*1454 FILLER_0_4_307
*1455 FILLER_0_4_309
*1456 FILLER_0_4_321
*1457 FILLER_0_4_333
*1458 FILLER_0_4_41
*1459 FILLER_0_4_53
*1460 FILLER_0_4_65
*1461 FILLER_0_4_77
*1462 FILLER_0_4_83
*1463 FILLER_0_4_85
*1464 FILLER_0_4_97
*1465 FILLER_0_5_105
*1466 FILLER_0_5_111
*1467 FILLER_0_5_113
*1468 FILLER_0_5_125
*1469 FILLER_0_5_137
*1470 FILLER_0_5_149
*1471 FILLER_0_5_15
*1472 FILLER_0_5_161
*1473 FILLER_0_5_167
*1474 FILLER_0_5_169
*1475 FILLER_0_5_181
*1476 FILLER_0_5_193
*1477 FILLER_0_5_205
*1478 FILLER_0_5_217
*1479 FILLER_0_5_223
*1480 FILLER_0_5_225
*1481 FILLER_0_5_237
*1482 FILLER_0_5_249
*1483 FILLER_0_5_261
*1484 FILLER_0_5_27
*1485 FILLER_0_5_273
*1486 FILLER_0_5_279
*1487 FILLER_0_5_281
*1488 FILLER_0_5_293
*1489 FILLER_0_5_3
*1490 FILLER_0_5_305
*1491 FILLER_0_5_317
*1492 FILLER_0_5_329
*1493 FILLER_0_5_39
*1494 FILLER_0_5_51
*1495 FILLER_0_5_55
*1496 FILLER_0_5_57
*1497 FILLER_0_5_69
*1498 FILLER_0_5_81
*1499 FILLER_0_5_93
*1500 FILLER_0_6_109
*1501 FILLER_0_6_121
*1502 FILLER_0_6_133
*1503 FILLER_0_6_139
*1504 FILLER_0_6_141
*1505 FILLER_0_6_15
*1506 FILLER_0_6_153
*1507 FILLER_0_6_165
*1508 FILLER_0_6_177
*1509 FILLER_0_6_189
*1510 FILLER_0_6_195
*1511 FILLER_0_6_197
*1512 FILLER_0_6_209
*1513 FILLER_0_6_221
*1514 FILLER_0_6_233
*1515 FILLER_0_6_245
*1516 FILLER_0_6_251
*1517 FILLER_0_6_253
*1518 FILLER_0_6_265
*1519 FILLER_0_6_27
*1520 FILLER_0_6_277
*1521 FILLER_0_6_289