*SPEF "ieee 1481-1999"
*DESIGN "tt_um_spiff42_exp_led_pwm"
*DATE "13:10:25 Friday April 19, 2024"
*VENDOR "The OpenROAD Project"
*PROGRAM "OpenROAD"
*VERSION "0889970d1790a2617e69f253221b8bd7626e51dc"
*DESIGN_FLOW "NAME_SCOPE LOCAL" "PIN_CAP NONE"
*DIVIDER /
*DELIMITER :
*BUS_DELIMITER []
*T_UNIT 1 NS
*C_UNIT 1 PF
*R_UNIT 1 OHM
*L_UNIT 1 HENRY

*NAME_MAP
*3 clk
*4 ena
*5 rst_n
*6 ui_in[0]
*7 ui_in[1]
*8 ui_in[2]
*9 ui_in[3]
*10 ui_in[4]
*11 ui_in[5]
*12 ui_in[6]
*13 ui_in[7]
*14 uio_in[0]
*15 uio_in[1]
*16 uio_in[2]
*17 uio_in[3]
*18 uio_in[4]
*19 uio_in[5]
*20 uio_in[6]
*21 uio_in[7]
*22 net24
*23 uio_oe[1]
*24 net25
*25 net26
*26 net27
*27 net28
*28 net29
*29 net30
*30 net31
*31 net32
*32 net33
*33 net34
*34 net35
*35 net36
*36 net37
*37 net38
*38 uo_out[0]
*39 uo_out[1]
*40 uo_out[2]
*41 uo_out[3]
*42 uo_out[4]
*43 uo_out[5]
*44 uo_out[6]
*45 uo_out[7]
*46 _0000_
*47 _0001_
*48 _0002_
*49 _0003_
*50 _0004_
*51 _0005_
*52 _0006_
*53 _0007_
*54 _0008_
*55 _0009_
*56 _0010_
*57 _0011_
*58 _0012_
*59 _0013_
*60 _0014_
*61 _0015_
*62 _0016_
*63 _0017_
*64 _0018_
*65 _0019_
*66 _0020_
*67 _0021_
*68 _0022_
*69 _0023_
*70 _0024_
*71 _0025_
*72 _0026_
*73 _0027_
*74 _0028_
*75 _0029_
*76 _0030_
*77 _0031_
*78 _0032_
*79 _0033_
*80 _0034_
*81 _0035_
*82 _0036_
*83 _0037_
*84 _0038_
*85 _0039_
*86 _0040_
*87 _0041_
*88 _0042_
*89 _0043_
*90 _0044_
*91 _0045_
*92 _0046_
*93 _0047_
*94 _0048_
*95 _0049_
*96 _0050_
*97 _0051_
*98 _0052_
*99 _0053_
*100 _0054_
*101 _0055_
*102 _0056_
*103 _0057_
*104 _0058_
*105 _0059_
*106 _0060_
*107 _0061_
*108 _0062_
*109 _0063_
*110 _0064_
*111 _0065_
*112 _0066_
*113 _0067_
*114 _0068_
*115 _0069_
*116 _0070_
*117 _0071_
*118 _0072_
*119 _0073_
*120 _0074_
*121 _0075_
*122 _0076_
*123 _0077_
*124 _0078_
*125 _0079_
*126 _0080_
*127 _0081_
*128 _0082_
*129 _0083_
*130 _0084_
*131 _0085_
*132 _0086_
*133 _0087_
*134 _0088_
*135 _0089_
*136 _0090_
*137 _0091_
*138 _0092_
*139 _0093_
*140 _0094_
*141 _0095_
*142 _0096_
*143 _0097_
*144 _0098_
*145 _0099_
*146 _0100_
*147 _0101_
*148 _0102_
*149 _0103_
*150 _0104_
*151 _0105_
*152 _0106_
*153 _0107_
*154 _0108_
*155 _0109_
*156 _0110_
*157 _0111_
*158 _0112_
*159 _0113_
*160 _0114_
*161 _0115_
*162 _0116_
*163 _0117_
*164 _0118_
*165 _0119_
*166 _0120_
*167 _0121_
*168 _0122_
*169 _0123_
*170 _0124_
*171 _0125_
*172 _0126_
*173 _0127_
*174 _0128_
*175 _0129_
*176 _0130_
*177 _0131_
*178 _0132_
*179 _0133_
*180 _0134_
*181 _0135_
*182 _0136_
*183 _0137_
*184 _0138_
*185 _0139_
*186 _0140_
*187 _0141_
*188 _0142_
*189 _0143_
*190 _0144_
*191 _0145_
*192 _0146_
*193 _0147_
*194 _0148_
*195 _0149_
*196 _0150_
*197 _0151_
*198 _0152_
*199 _0153_
*200 _0154_
*201 _0155_
*202 _0156_
*203 _0157_
*204 _0158_
*205 _0159_
*206 _0160_
*207 _0161_
*208 _0162_
*209 _0163_
*210 _0164_
*211 _0165_
*212 _0166_
*213 _0167_
*214 _0168_
*215 _0169_
*216 _0170_
*217 _0171_
*218 _0172_
*219 _0173_
*220 _0174_
*221 _0175_
*222 _0176_
*223 _0177_
*224 _0178_
*225 _0179_
*226 _0180_
*227 _0181_
*228 _0182_
*229 _0183_
*230 _0184_
*231 _0185_
*232 _0186_
*233 _0187_
*234 _0188_
*235 _0189_
*236 _0190_
*237 _0191_
*238 _0192_
*239 _0193_
*240 _0194_
*241 _0195_
*242 _0196_
*243 _0197_
*244 _0198_
*245 _0199_
*246 _0200_
*247 _0201_
*248 _0202_
*249 _0203_
*250 _0204_
*251 _0205_
*252 _0206_
*253 _0207_
*254 _0208_
*255 _0209_
*256 _0210_
*257 _0211_
*258 _0212_
*259 _0213_
*260 _0214_
*261 _0215_
*262 _0216_
*263 _0217_
*264 _0218_
*265 _0219_
*266 _0220_
*267 _0221_
*268 _0222_
*269 _0223_
*270 _0224_
*271 _0225_
*272 _0226_
*273 _0227_
*274 _0228_
*275 _0229_
*276 _0230_
*277 _0231_
*278 _0232_
*279 _0233_
*280 _0234_
*281 _0235_
*282 _0236_
*283 _0237_
*284 _0238_
*285 _0239_
*286 _0240_
*287 _0241_
*288 _0242_
*289 _0243_
*290 _0244_
*291 _0245_
*292 _0246_
*293 _0247_
*294 _0248_
*295 _0249_
*296 _0250_
*297 _0251_
*298 _0252_
*299 _0253_
*300 _0254_
*301 _0255_
*302 _0256_
*303 _0257_
*304 _0258_
*305 _0259_
*306 _0260_
*307 _0261_
*308 _0262_
*309 _0263_
*310 _0264_
*311 _0265_
*312 _0266_
*313 _0267_
*314 _0268_
*315 _0269_
*316 _0270_
*317 _0271_
*318 _0272_
*319 _0273_
*320 _0274_
*321 _0275_
*322 _0276_
*323 _0277_
*324 _0278_
*325 _0279_
*326 _0280_
*327 _0281_
*328 _0282_
*329 _0283_
*330 _0284_
*331 _0285_
*332 _0286_
*333 _0287_
*334 _0288_
*335 _0289_
*336 _0290_
*337 _0291_
*338 _0292_
*339 _0293_
*340 _0294_
*341 _0295_
*342 _0296_
*343 _0297_
*344 _0298_
*345 _0299_
*346 _0300_
*347 _0301_
*348 _0302_
*349 _0303_
*350 _0304_
*351 _0305_
*352 _0306_
*353 _0307_
*354 _0308_
*355 _0309_
*356 _0310_
*357 _0311_
*358 _0312_
*359 _0313_
*360 _0314_
*361 _0315_
*362 _0316_
*363 _0317_
*364 _0318_
*365 _0319_
*366 _0320_
*367 _0321_
*368 _0322_
*369 _0323_
*370 _0324_
*371 _0325_
*372 _0326_
*373 _0327_
*374 _0328_
*375 _0329_
*376 _0330_
*377 _0331_
*378 _0332_
*379 _0333_
*380 _0334_
*381 _0335_
*382 _0336_
*383 _0337_
*384 _0338_
*385 _0339_
*386 _0340_
*387 _0341_
*388 _0342_
*389 _0343_
*390 _0344_
*391 _0345_
*392 _0346_
*393 _0347_
*394 _0348_
*395 _0349_
*396 _0350_
*397 _0351_
*398 _0352_
*399 _0353_
*400 _0354_
*401 _0355_
*402 _0356_
*403 _0357_
*404 _0358_
*405 _0359_
*406 _0360_
*407 _0361_
*408 _0362_
*409 _0363_
*410 _0364_
*411 _0365_
*412 _0366_
*413 _0367_
*414 _0368_
*415 _0369_
*416 _0370_
*417 _0371_
*418 _0372_
*419 _0373_
*420 _0374_
*421 _0375_
*422 _0376_
*423 _0377_
*424 _0378_
*425 _0379_
*426 _0380_
*427 _0381_
*428 _0382_
*429 _0383_
*430 _0384_
*431 _0385_
*432 _0386_
*433 _0387_
*434 _0388_
*435 _0389_
*436 _0390_
*437 _0391_
*438 _0392_
*439 _0393_
*440 _0394_
*441 _0395_
*442 _0396_
*443 _0397_
*444 _0398_
*445 _0399_
*446 _0400_
*447 _0401_
*448 _0402_
*449 _0403_
*450 _0404_
*451 _0405_
*452 _0406_
*453 _0407_
*454 _0408_
*455 _0409_
*456 _0410_
*457 _0411_
*458 _0412_
*459 _0413_
*460 _0414_
*461 _0415_
*462 _0416_
*463 _0417_
*464 _0418_
*465 _0419_
*466 _0420_
*467 _0421_
*468 _0422_
*469 _0423_
*470 _0424_
*471 _0425_
*472 _0426_
*473 _0427_
*474 _0428_
*475 _0429_
*476 _0430_
*477 _0431_
*478 _0432_
*479 _0433_
*480 _0434_
*481 _0435_
*482 _0436_
*483 _0437_
*484 _0438_
*485 _0439_
*486 _0440_
*487 _0441_
*488 _0442_
*489 _0443_
*490 _0444_
*491 _0445_
*492 _0446_
*493 _0447_
*494 _0448_
*495 _0449_
*496 _0450_
*497 _0451_
*498 _0452_
*499 _0453_
*500 _0454_
*501 _0455_
*502 _0456_
*503 _0457_
*504 _0458_
*505 _0459_
*506 _0460_
*507 _0461_
*508 _0462_
*509 _0463_
*510 _0464_
*511 _0465_
*512 _0466_
*513 _0467_
*514 _0468_
*515 _0469_
*516 _0470_
*517 _0471_
*518 _0472_
*519 _0473_
*520 _0474_
*521 _0475_
*522 _0476_
*523 _0477_
*524 _0478_
*525 _0479_
*526 _0480_
*527 _0481_
*528 _0482_
*529 _0483_
*530 _0484_
*531 _0485_
*532 _0486_
*533 _0487_
*534 _0488_
*535 _0489_
*536 _0490_
*537 _0491_
*538 _0492_
*539 _0493_
*540 _0494_
*541 _0495_
*542 _0496_
*543 _0497_
*544 _0498_
*545 _0499_
*546 _0500_
*547 _0501_
*548 _0502_
*549 _0503_
*550 _0504_
*551 _0505_
*552 _0506_
*553 _0507_
*554 _0508_
*555 _0509_
*556 _0510_
*557 _0511_
*558 _0512_
*559 _0513_
*560 _0514_
*561 _0515_
*562 _0516_
*563 _0517_
*564 _0518_
*565 _0519_
*566 _0520_
*567 _0521_
*568 _0522_
*569 _0523_
*570 _0524_
*571 _0525_
*572 _0526_
*573 _0527_
*574 _0528_
*575 _0529_
*576 _0530_
*577 _0531_
*578 _0532_
*579 _0533_
*580 _0534_
*581 _0535_
*582 _0536_
*583 _0537_
*584 _0538_
*585 _0539_
*586 _0540_
*587 _0541_
*588 _0542_
*589 _0543_
*590 _0544_
*591 _0545_
*592 _0546_
*593 _0547_
*594 _0548_
*595 _0549_
*596 _0550_
*597 _0551_
*598 _0552_
*599 _0553_
*600 _0554_
*601 _0555_
*602 _0556_
*603 _0557_
*604 _0558_
*605 _0559_
*606 _0560_
*607 _0561_
*608 _0562_
*609 _0563_
*610 _0564_
*611 _0565_
*612 _0566_
*613 _0567_
*614 _0568_
*615 _0569_
*616 _0570_
*617 _0571_
*618 _0572_
*619 _0573_
*620 _0574_
*621 _0575_
*622 _0576_
*623 _0577_
*624 _0578_
*625 _0579_
*626 _0580_
*627 _0581_
*628 _0582_
*629 _0583_
*630 _0584_
*631 _0585_
*632 _0586_
*633 _0587_
*634 _0588_
*635 _0589_
*636 _0590_
*637 _0591_
*638 _0592_
*639 _0593_
*640 _0594_
*641 _0595_
*642 _0596_
*643 _0597_
*644 _0598_
*645 _0599_
*646 _0600_
*647 _0601_
*648 _0602_
*649 _0603_
*650 _0604_
*651 _0605_
*652 _0606_
*653 _0607_
*654 _0608_
*655 _0609_
*656 _0610_
*657 _0611_
*658 _0612_
*659 _0613_
*660 _0614_
*661 _0615_
*662 _0616_
*663 _0617_
*664 _0618_
*665 _0619_
*666 _0620_
*667 _0621_
*668 _0622_
*669 _0623_
*670 _0624_
*671 _0625_
*672 _0626_
*673 _0627_
*674 clknet_0_clk
*675 clknet_4_0_0_clk
*676 clknet_4_10_0_clk
*677 clknet_4_11_0_clk
*678 clknet_4_12_0_clk
*679 clknet_4_13_0_clk
*680 clknet_4_14_0_clk
*681 clknet_4_15_0_clk
*682 clknet_4_1_0_clk
*683 clknet_4_2_0_clk
*684 clknet_4_3_0_clk
*685 clknet_4_4_0_clk
*686 clknet_4_5_0_clk
*687 clknet_4_6_0_clk
*688 clknet_4_7_0_clk
*689 clknet_4_8_0_clk
*690 clknet_4_9_0_clk
*691 i2c\.addr\[0\]
*692 i2c\.addr\[1\]
*693 i2c\.addr\[2\]
*694 i2c\.addr\[3\]
*695 i2c\.addr\[4\]
*696 i2c\.addr\[5\]
*697 i2c\.addr\[6\]
*698 i2c\.addr\[7\]
*699 i2c\.bus_start
*700 i2c\.bus_stop
*701 i2c\.dbyte\[0\]
*702 i2c\.dbyte\[1\]
*703 i2c\.dbyte\[2\]
*704 i2c\.dbyte\[3\]
*705 i2c\.dbyte\[4\]
*706 i2c\.dbyte\[5\]
*707 i2c\.dbyte\[6\]
*708 i2c\.dbyte\[7\]
*709 i2c\.last_event\[0\]
*710 i2c\.last_event\[3\]
*711 i2c\.pull_sda
*712 i2c\.scl_d\[0\]
*713 i2c\.scl_d\[1\]
*714 i2c\.scl_d\[2\]
*715 i2c\.scl_d\[3\]
*716 i2c\.sda_d\[0\]
*717 i2c\.sda_d\[1\]
*718 i2c\.sda_d\[2\]
*719 i2c\.sda_d\[3\]
*720 i2c\.wen
*721 i2c_control
*722 net1
*723 net10
*724 net11
*725 net12
*726 net13
*727 net14
*728 net15
*729 net16
*730 net17
*731 net18
*732 net19
*733 net2
*734 net20
*735 net21
*736 net22
*737 net23
*738 net3
*739 net39
*740 net4
*741 net40
*742 net41
*743 net42
*744 net43
*745 net44
*746 net45
*747 net46
*748 net47
*749 net48
*750 net49
*751 net5
*752 net50
*753 net51
*754 net52
*755 net53
*756 net54
*757 net55
*758 net56
*759 net57
*760 net58
*761 net59
*762 net6
*763 net60
*764 net61
*765 net62
*766 net63
*767 net64
*768 net65
*769 net66
*770 net67
*771 net68
*772 net69
*773 net7
*774 net70
*775 net71
*776 net72
*777 net73
*778 net74
*779 net75
*780 net76
*781 net77
*782 net8
*783 net9
*784 pwmch_0\.ch
*785 pwmch_0\.ramp\[0\]
*786 pwmch_0\.ramp\[1\]
*787 pwmch_0\.ramp\[2\]
*788 pwmch_0\.ramp\[3\]
*789 pwmch_0\.ramp\[4\]
*790 pwmch_0\.ramp\[5\]
*791 pwmch_0\.ramp\[6\]
*792 pwmch_0\.ramp\[7\]
*793 pwmch_0\.value\[0\]
*794 pwmch_0\.value\[1\]
*795 pwmch_0\.value\[2\]
*796 pwmch_0\.value\[3\]
*797 pwmch_0\.value\[4\]
*798 pwmch_0\.value\[5\]
*799 pwmch_0\.value\[6\]
*800 pwmch_0\.value\[7\]
*801 pwmch_1\.ch
*802 pwmch_1\.value\[0\]
*803 pwmch_1\.value\[1\]
*804 pwmch_1\.value\[2\]
*805 pwmch_1\.value\[3\]
*806 pwmch_1\.value\[4\]
*807 pwmch_1\.value\[5\]
*808 pwmch_1\.value\[6\]
*809 pwmch_1\.value\[7\]
*810 pwmch_2\.ch
*811 pwmch_2\.value\[0\]
*812 pwmch_2\.value\[1\]
*813 pwmch_2\.value\[2\]
*814 pwmch_2\.value\[3\]
*815 pwmch_2\.value\[4\]
*816 pwmch_2\.value\[5\]
*817 pwmch_2\.value\[6\]
*818 pwmch_2\.value\[7\]
*819 pwmch_3\.ch
*820 pwmch_3\.value\[0\]
*821 pwmch_3\.value\[1\]
*822 pwmch_3\.value\[2\]
*823 pwmch_3\.value\[3\]
*824 pwmch_3\.value\[4\]
*825 pwmch_3\.value\[5\]
*826 pwmch_3\.value\[6\]
*827 pwmch_3\.value\[7\]
*828 pwmch_4\.ch
*829 pwmch_4\.value\[0\]
*830 pwmch_4\.value\[1\]
*831 pwmch_4\.value\[2\]
*832 pwmch_4\.value\[3\]
*833 pwmch_4\.value\[4\]
*834 pwmch_4\.value\[5\]
*835 pwmch_4\.value\[6\]
*836 pwmch_4\.value\[7\]
*837 pwmch_5\.ch
*838 pwmch_5\.value\[0\]
*839 pwmch_5\.value\[1\]
*840 pwmch_5\.value\[2\]
*841 pwmch_5\.value\[3\]
*842 pwmch_5\.value\[4\]
*843 pwmch_5\.value\[5\]
*844 pwmch_5\.value\[6\]
*845 pwmch_5\.value\[7\]
*846 pwmch_6\.ch
*847 pwmch_6\.value\[0\]
*848 pwmch_6\.value\[1\]
*849 pwmch_6\.value\[2\]
*850 pwmch_6\.value\[3\]
*851 pwmch_6\.value\[4\]
*852 pwmch_6\.value\[5\]
*853 pwmch_6\.value\[6\]
*854 pwmch_6\.value\[7\]
*855 pwmch_7\.ch
*856 pwmch_7\.value\[0\]
*857 pwmch_7\.value\[1\]
*858 pwmch_7\.value\[2\]
*859 pwmch_7\.value\[3\]
*860 pwmch_7\.value\[4\]
*861 pwmch_7\.value\[5\]
*862 pwmch_7\.value\[6\]
*863 pwmch_7\.value\[7\]
*864 ramp_gen\.ramp_low\[0\]
*865 ramp_gen\.ramp_low\[1\]
*866 ramp_gen\.ramp_low\[2\]
*867 ramp_gen\.ramp_low\[3\]
*868 ramp_gen\.ramp_low\[4\]
*869 ramp_gen\.ramp_low\[5\]
*870 ramp_gen\.ramp_low\[6\]
*871 ramp_gen\.ramp_low\[7\]
*872 ramp_gen\.ramp_low\[8\]
*873 ramp_gen\.ramp_low\[9\]
*874 ANTENNA_1
*875 FILLER_0_0_109
*876 FILLER_0_0_113
*877 FILLER_0_0_125
*878 FILLER_0_0_137
*879 FILLER_0_0_141
*880 FILLER_0_0_15
*881 FILLER_0_0_153
*882 FILLER_0_0_165
*883 FILLER_0_0_169
*884 FILLER_0_0_181
*885 FILLER_0_0_193
*886 FILLER_0_0_197
*887 FILLER_0_0_209
*888 FILLER_0_0_221
*889 FILLER_0_0_225
*890 FILLER_0_0_237
*891 FILLER_0_0_249
*892 FILLER_0_0_253
*893 FILLER_0_0_265
*894 FILLER_0_0_27
*895 FILLER_0_0_277
*896 FILLER_0_0_281
*897 FILLER_0_0_29
*898 FILLER_0_0_293
*899 FILLER_0_0_3
*900 FILLER_0_0_305
*901 FILLER_0_0_309
*902 FILLER_0_0_321
*903 FILLER_0_0_333
*904 FILLER_0_0_41
*905 FILLER_0_0_53
*906 FILLER_0_0_57
*907 FILLER_0_0_69
*908 FILLER_0_0_81
*909 FILLER_0_0_85
*910 FILLER_0_0_97
*911 FILLER_0_10_108
*912 FILLER_0_10_120
*913 FILLER_0_10_15
*914 FILLER_0_10_158
*915 FILLER_0_10_168
*916 FILLER_0_10_180
*917 FILLER_0_10_186
*918 FILLER_0_10_190
*919 FILLER_0_10_212
*920 FILLER_0_10_224
*921 FILLER_0_10_236
*922 FILLER_0_10_249
*923 FILLER_0_10_263
*924 FILLER_0_10_269
*925 FILLER_0_10_27
*926 FILLER_0_10_29
*927 FILLER_0_10_3
*928 FILLER_0_10_309
*929 FILLER_0_10_329
*930 FILLER_0_10_41
*931 FILLER_0_10_80
*932 FILLER_0_10_85
*933 FILLER_0_10_90
*934 FILLER_0_10_98
*935 FILLER_0_11_108
*936 FILLER_0_11_142
*937 FILLER_0_11_146
*938 FILLER_0_11_15
*939 FILLER_0_11_169
*940 FILLER_0_11_181
*941 FILLER_0_11_222
*942 FILLER_0_11_233
*943 FILLER_0_11_241
*944 FILLER_0_11_247
*945 FILLER_0_11_259
*946 FILLER_0_11_263
*947 FILLER_0_11_27
*948 FILLER_0_11_278
*949 FILLER_0_11_281
*950 FILLER_0_11_294
*951 FILLER_0_11_3
*952 FILLER_0_11_323
*953 FILLER_0_11_39
*954 FILLER_0_11_51
*955 FILLER_0_11_55
*956 FILLER_0_11_57
*957 FILLER_0_11_66
*958 FILLER_0_11_78
*959 FILLER_0_11_82
*960 FILLER_0_11_96
*961 FILLER_0_12_106
*962 FILLER_0_12_114
*963 FILLER_0_12_141
*964 FILLER_0_12_15
*965 FILLER_0_12_153
*966 FILLER_0_12_179
*967 FILLER_0_12_191
*968 FILLER_0_12_233
*969 FILLER_0_12_245
*970 FILLER_0_12_251
*971 FILLER_0_12_253
*972 FILLER_0_12_27
*973 FILLER_0_12_279
*974 FILLER_0_12_29
*975 FILLER_0_12_295
*976 FILLER_0_12_3
*977 FILLER_0_12_307
*978 FILLER_0_12_317
*979 FILLER_0_12_327
*980 FILLER_0_12_41
*981 FILLER_0_12_47
*982 FILLER_0_13_101
*983 FILLER_0_13_109
*984 FILLER_0_13_119
*985 FILLER_0_13_147
*986 FILLER_0_13_15
*987 FILLER_0_13_154
*988 FILLER_0_13_166
*989 FILLER_0_13_175
*990 FILLER_0_13_187
*991 FILLER_0_13_211
*992 FILLER_0_13_239
*993 FILLER_0_13_245
*994 FILLER_0_13_258
*995 FILLER_0_13_27
*996 FILLER_0_13_276
*997 FILLER_0_13_292
*998 FILLER_0_13_3
*999 FILLER_0_13_304
*1000 FILLER_0_13_311
*1001 FILLER_0_13_330
*1002 FILLER_0_13_334
*1003 FILLER_0_13_39
*1004 FILLER_0_13_51
*1005 FILLER_0_13_55
*1006 FILLER_0_13_77
*1007 FILLER_0_13_89
*1008 FILLER_0_14_107
*1009 FILLER_0_14_119
*1010 FILLER_0_14_136
*1011 FILLER_0_14_15
*1012 FILLER_0_14_155
*1013 FILLER_0_14_167
*1014 FILLER_0_14_179
*1015 FILLER_0_14_187
*1016 FILLER_0_14_203
*1017 FILLER_0_14_224
*1018 FILLER_0_14_236
*1019 FILLER_0_14_258
*1020 FILLER_0_14_27
*1021 FILLER_0_14_283
*1022 FILLER_0_14_29
*1023 FILLER_0_14_3
*1024 FILLER_0_14_300
*1025 FILLER_0_14_312
*1026 FILLER_0_14_333
*1027 FILLER_0_14_41
*1028 FILLER_0_14_53
*1029 FILLER_0_14_72
*1030 FILLER_0_14_85
*1031 FILLER_0_14_95
*1032 FILLER_0_15_103
*1033 FILLER_0_15_111
*1034 FILLER_0_15_118
*1035 FILLER_0_15_15
*1036 FILLER_0_15_159
*1037 FILLER_0_15_167
*1038 FILLER_0_15_169
*1039 FILLER_0_15_181
*1040 FILLER_0_15_191
*1041 FILLER_0_15_195
*1042 FILLER_0_15_216
*1043 FILLER_0_15_27
*1044 FILLER_0_15_279
*1045 FILLER_0_15_281
*1046 FILLER_0_15_288
*1047 FILLER_0_15_296
*1048 FILLER_0_15_3
*1049 FILLER_0_15_334
*1050 FILLER_0_15_39
*1051 FILLER_0_15_51
*1052 FILLER_0_15_55
*1053 FILLER_0_15_57
*1054 FILLER_0_15_65
*1055 FILLER_0_15_86
*1056 FILLER_0_16_116
*1057 FILLER_0_16_138
*1058 FILLER_0_16_141
*1059 FILLER_0_16_15
*1060 FILLER_0_16_153
*1061 FILLER_0_16_175
*1062 FILLER_0_16_187
*1063 FILLER_0_16_191
*1064 FILLER_0_16_195
*1065 FILLER_0_16_213
*1066 FILLER_0_16_225
*1067 FILLER_0_16_237
*1068 FILLER_0_16_245
*1069 FILLER_0_16_253
*1070 FILLER_0_16_269
*1071 FILLER_0_16_27
*1072 FILLER_0_16_273
*1073 FILLER_0_16_285
*1074 FILLER_0_16_29
*1075 FILLER_0_16_292
*1076 FILLER_0_16_3
*1077 FILLER_0_16_307
*1078 FILLER_0_16_333
*1079 FILLER_0_16_41
*1080 FILLER_0_16_49
*1081 FILLER_0_16_76
*1082 FILLER_0_16_83
*1083 FILLER_0_17_108
*1084 FILLER_0_17_11
*1085 FILLER_0_17_113
*1086 FILLER_0_17_121
*1087 FILLER_0_17_129
*1088 FILLER_0_17_141
*1089 FILLER_0_17_181
*1090 FILLER_0_17_203
*1091 FILLER_0_17_215
*1092 FILLER_0_17_223
*1093 FILLER_0_17_225
*1094 FILLER_0_17_237
*1095 FILLER_0_17_242
*1096 FILLER_0_17_258
*1097 FILLER_0_17_263
*1098 FILLER_0_17_275
*1099 FILLER_0_17_279
*1100 FILLER_0_17_29
*1101 FILLER_0_17_290
*1102 FILLER_0_17_3
*1103 FILLER_0_17_332
*1104 FILLER_0_17_41
*1105 FILLER_0_17_49
*1106 FILLER_0_17_73
*1107 FILLER_0_17_85
*1108 FILLER_0_18_110
*1109 FILLER_0_18_114
*1110 FILLER_0_18_141
*1111 FILLER_0_18_153
*1112 FILLER_0_18_189
*1113 FILLER_0_18_194
*1114 FILLER_0_18_214
*1115 FILLER_0_18_224
*1116 FILLER_0_18_230
*1117 FILLER_0_18_272
*1118 FILLER_0_18_278
*1119 FILLER_0_18_29
*1120 FILLER_0_18_3
*1121 FILLER_0_18_306
*1122 FILLER_0_18_309
*1123 FILLER_0_18_313
*1124 FILLER_0_18_326
*1125 FILLER_0_18_334
*1126 FILLER_0_18_41
*1127 FILLER_0_18_45
*1128 FILLER_0_18_74
*1129 FILLER_0_18_82
*1130 FILLER_0_18_85
*1131 FILLER_0_18_95
*1132 FILLER_0_19_109
*1133 FILLER_0_19_121
*1134 FILLER_0_19_133
*1135 FILLER_0_19_145
*1136 FILLER_0_19_157
*1137 FILLER_0_19_169
*1138 FILLER_0_19_186
*1139 FILLER_0_19_192
*1140 FILLER_0_19_202
*1141 FILLER_0_19_214
*1142 FILLER_0_19_241
*1143 FILLER_0_19_271
*1144 FILLER_0_19_279
*1145 FILLER_0_19_281
*1146 FILLER_0_19_289
*1147 FILLER_0_19_3
*1148 FILLER_0_19_31
*1149 FILLER_0_19_330
*1150 FILLER_0_19_334
*1151 FILLER_0_19_43
*1152 FILLER_0_19_55
*1153 FILLER_0_19_57
*1154 FILLER_0_19_78
*1155 FILLER_0_19_9
*1156 FILLER_0_19_90
*1157 FILLER_0_1_106
*1158 FILLER_0_1_113
*1159 FILLER_0_1_125
*1160 FILLER_0_1_137
*1161 FILLER_0_1_149
*1162 FILLER_0_1_15
*1163 FILLER_0_1_161
*1164 FILLER_0_1_167
*1165 FILLER_0_1_169
*1166 FILLER_0_1_181
*1167 FILLER_0_1_193
*1168 FILLER_0_1_205
*1169 FILLER_0_1_217
*1170 FILLER_0_1_223
*1171 FILLER_0_1_225
*1172 FILLER_0_1_237
*1173 FILLER_0_1_249
*1174 FILLER_0_1_261
*1175 FILLER_0_1_27
*1176 FILLER_0_1_273
*1177 FILLER_0_1_279
*1178 FILLER_0_1_281
*1179 FILLER_0_1_293
*1180 FILLER_0_1_3
*1181 FILLER_0_1_305
*1182 FILLER_0_1_317
*1183 FILLER_0_1_329
*1184 FILLER_0_1_39
*1185 FILLER_0_1_51
*1186 FILLER_0_1_55
*1187 FILLER_0_1_57
*1188 FILLER_0_1_69
*1189 FILLER_0_1_81
*1190 FILLER_0_20_103
*1191 FILLER_0_20_11
*1192 FILLER_0_20_124
*1193 FILLER_0_20_136
*1194 FILLER_0_20_141
*1195 FILLER_0_20_149
*1196 FILLER_0_20_167
*1197 FILLER_0_20_192
*1198 FILLER_0_20_206
*1199 FILLER_0_20_218
*1200 FILLER_0_20_264
*1201 FILLER_0_20_270
*1202 FILLER_0_20_291
*1203 FILLER_0_20_3
*1204 FILLER_0_20_309
*1205 FILLER_0_20_32
*1206 FILLER_0_20_331
*1207 FILLER_0_20_44
*1208 FILLER_0_20_72
*1209 FILLER_0_20_83
*1210 FILLER_0_20_85
*1211 FILLER_0_20_93
*1212 FILLER_0_21_132
*1213 FILLER_0_21_140
*1214 FILLER_0_21_148
*1215 FILLER_0_21_178
*1216 FILLER_0_21_208
*1217 FILLER_0_21_216
*1218 FILLER_0_21_222
*1219 FILLER_0_21_241
*1220 FILLER_0_21_249
*1221 FILLER_0_21_278
*1222 FILLER_0_21_281
*1223 FILLER_0_21_293
*1224 FILLER_0_21_3
*1225 FILLER_0_21_305
*1226 FILLER_0_21_36
*1227 FILLER_0_21_44
*1228 FILLER_0_21_82
*1229 FILLER_0_22_134
*1230 FILLER_0_22_141
*1231 FILLER_0_22_168
*1232 FILLER_0_22_18
*1233 FILLER_0_22_183
*1234 FILLER_0_22_192
*1235 FILLER_0_22_205
*1236 FILLER_0_22_213
*1237 FILLER_0_22_240
*1238 FILLER_0_22_253
*1239 FILLER_0_22_26
*1240 FILLER_0_22_267
*1241 FILLER_0_22_285
*1242 FILLER_0_22_297
*1243 FILLER_0_22_3
*1244 FILLER_0_22_305
*1245 FILLER_0_22_309
*1246 FILLER_0_22_321
*1247 FILLER_0_22_332
*1248 FILLER_0_22_38
*1249 FILLER_0_22_57
*1250 FILLER_0_22_77
*1251 FILLER_0_22_83
*1252 FILLER_0_22_85
*1253 FILLER_0_22_93
*1254 FILLER_0_23_113
*1255 FILLER_0_23_123
*1256 FILLER_0_23_127
*1257 FILLER_0_23_131
*1258 FILLER_0_23_143
*1259 FILLER_0_23_197
*1260 FILLER_0_23_209
*1261 FILLER_0_23_223
*1262 FILLER_0_23_248
*1263 FILLER_0_23_281
*1264 FILLER_0_23_3
*1265 FILLER_0_23_31
*1266 FILLER_0_23_324
*1267 FILLER_0_23_332
*1268 FILLER_0_23_35
*1269 FILLER_0_23_43
*1270 FILLER_0_23_48
*1271 FILLER_0_23_57
*1272 FILLER_0_23_92
*1273 FILLER_0_23_96
*1274 FILLER_0_24_109
*1275 FILLER_0_24_118
*1276 FILLER_0_24_130
*1277 FILLER_0_24_138
*1278 FILLER_0_24_141
*1279 FILLER_0_24_149
*1280 FILLER_0_24_155
*1281 FILLER_0_24_184
*1282 FILLER_0_24_206
*1283 FILLER_0_24_218
*1284 FILLER_0_24_230
*1285 FILLER_0_24_236
*1286 FILLER_0_24_248
*1287 FILLER_0_24_25
*1288 FILLER_0_24_253
*1289 FILLER_0_24_287
*1290 FILLER_0_24_299
*1291 FILLER_0_24_3
*1292 FILLER_0_24_329
*1293 FILLER_0_24_54
*1294 FILLER_0_24_62
*1295 FILLER_0_24_73
*1296 FILLER_0_24_83
*1297 FILLER_0_24_85
*1298 FILLER_0_24_97
*1299 FILLER_0_25_11
*1300 FILLER_0_25_113
*1301 FILLER_0_25_117
*1302 FILLER_0_25_131
*1303 FILLER_0_25_143
*1304 FILLER_0_25_149
*1305 FILLER_0_25_153
*1306 FILLER_0_25_175
*1307 FILLER_0_25_187
*1308 FILLER_0_25_204
*1309 FILLER_0_25_219
*1310 FILLER_0_25_223
*1311 FILLER_0_25_234
*1312 FILLER_0_25_26
*1313 FILLER_0_25_279
*1314 FILLER_0_25_281
*1315 FILLER_0_25_293
*1316 FILLER_0_25_3
*1317 FILLER_0_25_305
*1318 FILLER_0_25_309
*1319 FILLER_0_25_32
*1320 FILLER_0_25_325
*1321 FILLER_0_25_333
*1322 FILLER_0_25_49
*1323 FILLER_0_25_55
*1324 FILLER_0_25_66
*1325 FILLER_0_25_85
*1326 FILLER_0_25_97
*1327 FILLER_0_26_119
*1328 FILLER_0_26_135
*1329 FILLER_0_26_139
*1330 FILLER_0_26_141
*1331 FILLER_0_26_145
*1332 FILLER_0_26_15
*1333 FILLER_0_26_186
*1334 FILLER_0_26_206
*1335 FILLER_0_26_228
*1336 FILLER_0_26_253
*1337 FILLER_0_26_269
*1338 FILLER_0_26_27
*1339 FILLER_0_26_281
*1340 FILLER_0_26_293
*1341 FILLER_0_26_3
*1342 FILLER_0_26_305
*1343 FILLER_0_26_309
*1344 FILLER_0_26_331
*1345 FILLER_0_26_94
*1346 FILLER_0_26_98
*1347 FILLER_0_27_102
*1348 FILLER_0_27_140
*1349 FILLER_0_27_148
*1350 FILLER_0_27_15
*1351 FILLER_0_27_177
*1352 FILLER_0_27_212
*1353 FILLER_0_27_221
*1354 FILLER_0_27_225
*1355 FILLER_0_27_237
*1356 FILLER_0_27_245
*1357 FILLER_0_27_254
*1358 FILLER_0_27_266
*1359 FILLER_0_27_27
*1360 FILLER_0_27_278
*1361 FILLER_0_27_286
*1362 FILLER_0_27_297
*1363 FILLER_0_27_3
*1364 FILLER_0_27_310
*1365 FILLER_0_27_332
*1366 FILLER_0_27_49
*1367 FILLER_0_27_55
*1368 FILLER_0_27_66
*1369 FILLER_0_27_72
*1370 FILLER_0_27_90
*1371 FILLER_0_28_110
*1372 FILLER_0_28_133
*1373 FILLER_0_28_139
*1374 FILLER_0_28_141
*1375 FILLER_0_28_15
*1376 FILLER_0_28_153
*1377 FILLER_0_28_169
*1378 FILLER_0_28_178
*1379 FILLER_0_28_190
*1380 FILLER_0_28_212
*1381 FILLER_0_28_236
*1382 FILLER_0_28_244
*1383 FILLER_0_28_25
*1384 FILLER_0_28_278
*1385 FILLER_0_28_29
*1386 FILLER_0_28_3
*1387 FILLER_0_28_304
*1388 FILLER_0_28_333
*1389 FILLER_0_28_58
*1390 FILLER_0_28_85
*1391 FILLER_0_28_98
*1392 FILLER_0_29_103
*1393 FILLER_0_29_111
*1394 FILLER_0_29_126
*1395 FILLER_0_29_138
*1396 FILLER_0_29_150
*1397 FILLER_0_29_158
*1398 FILLER_0_29_166
*1399 FILLER_0_29_184
*1400 FILLER_0_29_196
*1401 FILLER_0_29_209
*1402 FILLER_0_29_25
*1403 FILLER_0_29_277
*1404 FILLER_0_29_3
*1405 FILLER_0_29_315
*1406 FILLER_0_29_323
*1407 FILLER_0_29_54
*1408 FILLER_0_29_57
*1409 FILLER_0_29_63
*1410 FILLER_0_29_67
*1411 FILLER_0_29_71
*1412 FILLER_0_29_91
*1413 FILLER_0_2_110
*1414 FILLER_0_2_119
*1415 FILLER_0_2_123
*1416 FILLER_0_2_135
*1417 FILLER_0_2_139
*1418 FILLER_0_2_141
*1419 FILLER_0_2_15
*1420 FILLER_0_2_153
*1421 FILLER_0_2_165
*1422 FILLER_0_2_177
*1423 FILLER_0_2_189
*1424 FILLER_0_2_195
*1425 FILLER_0_2_197
*1426 FILLER_0_2_209
*1427 FILLER_0_2_221
*1428 FILLER_0_2_233
*1429 FILLER_0_2_245
*1430 FILLER_0_2_251
*1431 FILLER_0_2_27
*1432 FILLER_0_2_281
*1433 FILLER_0_2_29
*1434 FILLER_0_2_293
*1435 FILLER_0_2_3
*1436 FILLER_0_2_305
*1437 FILLER_0_2_309
*1438 FILLER_0_2_321
*1439 FILLER_0_2_333
*1440 FILLER_0_2_41
*1441 FILLER_0_2_53
*1442 FILLER_0_2_65
*1443 FILLER_0_2_70
*1444 FILLER_0_2_76
*1445 FILLER_0_2_80
*1446 FILLER_0_2_85
*1447 FILLER_0_30_103
*1448 FILLER_0_30_134
*1449 FILLER_0_30_149
*1450 FILLER_0_30_165
*1451 FILLER_0_30_172
*1452 FILLER_0_30_184
*1453 FILLER_0_30_188
*1454 FILLER_0_30_213
*1455 FILLER_0_30_217
*1456 FILLER_0_30_229
*1457 FILLER_0_30_241
*1458 FILLER_0_30_25
*1459 FILLER_0_30_253
*1460 FILLER_0_30_257
*1461 FILLER_0_30_267
*1462 FILLER_0_30_275
*1463 FILLER_0_30_287
*1464 FILLER_0_30_3
*1465 FILLER_0_30_317
*1466 FILLER_0_30_334
*1467 FILLER_0_30_45
*1468 FILLER_0_30_57
*1469 FILLER_0_30_76
*1470 FILLER_0_30_85
*1471 FILLER_0_30_97
*1472 FILLER_0_31_113
*1473 FILLER_0_31_121
*1474 FILLER_0_31_143
*1475 FILLER_0_31_15
*1476 FILLER_0_31_155
*1477 FILLER_0_31_185
*1478 FILLER_0_31_216
*1479 FILLER_0_31_225
*1480 FILLER_0_31_235
*1481 FILLER_0_31_25
*1482 FILLER_0_31_260
*1483 FILLER_0_31_272
*1484 FILLER_0_31_281
*1485 FILLER_0_31_3
*1486 FILLER_0_31_302
*1487 FILLER_0_31_310
*1488 FILLER_0_31_324
*1489 FILLER_0_31_332
*1490 FILLER_0_31_55
*1491 FILLER_0_31_57
*1492 FILLER_0_31_87
*1493 FILLER_0_31_99
*1494 FILLER_0_32_109
*1495 FILLER_0_32_133
*1496 FILLER_0_32_139
*1497 FILLER_0_32_141
*1498 FILLER_0_32_15
*1499 FILLER_0_32_152
*1500 FILLER_0_32_160
*1501 FILLER_0_32_172
*1502 FILLER_0_32_181
*1503 FILLER_0_32_197
*1504 FILLER_0_32_214
*1505 FILLER_0_32_226
*1506 FILLER_0_32_247
*1507 FILLER_0_32_251
*1508 FILLER_0_32_261
*1509 FILLER_0_32_27
*1510 FILLER_0_32_271
*1511 FILLER_0_32_279
*1512 FILLER_0_32_288
*1513 FILLER_0_32_29
*1514 FILLER_0_32_3
*1515 FILLER_0_32_300
*1516 FILLER_0_32_309
*1517 FILLER_0_32_33
*1518 FILLER_0_32_331
*1519 FILLER_0_32_46
*1520 FILLER_0_32_58
*1521 FILLER_0_32_79
*1522 FILLER_0_32_83
*1523 FILLER_0_33_108
*1524 FILLER_0_33_113
*1525 FILLER_0_33_136
*1526 FILLER_0_33_164
*1527 FILLER_0_33_185
*1528 FILLER_0_33_210
*1529 FILLER_0_33_219
*1530 FILLER_0_33_249
*1531 FILLER_0_33_253
*1532 FILLER_0_33_279
*1533 FILLER_0_33_281
*1534 FILLER_0_33_296
*1535 FILLER_0_33_3
*1536 FILLER_0_33_316
*1537 FILLER_0_33_32
*1538 FILLER_0_33_328
*1539 FILLER_0_33_334
*1540 FILLER_0_33_44
*1541 FILLER_0_33_57
*1542 FILLER_0_34_115
*1543 FILLER_0_34_136
*1544 FILLER_0_34_155
*1545 FILLER_0_34_166
*1546 FILLER_0_34_178
*1547 FILLER_0_34_194
*1548 FILLER_0_34_204
*1549 FILLER_0_34_212
*1550 FILLER_0_34_227
*1551 FILLER_0_34_239
*1552 FILLER_0_34_253
*1553 FILLER_0_34_26
*1554 FILLER_0_34_270
*1555 FILLER_0_34_274
*1556 FILLER_0_34_3
*1557 FILLER_0_34_32
*1558 FILLER_0_34_330
*1559 FILLER_0_34_334
*1560 FILLER_0_34_41
*1561 FILLER_0_34_53
*1562 FILLER_0_34_70
*1563 FILLER_0_34_82
*1564 FILLER_0_34_85
*1565 FILLER_0_35_102
*1566 FILLER_0_35_110
*1567 FILLER_0_35_122
*1568 FILLER_0_35_154
*1569 FILLER_0_35_166
*1570 FILLER_0_35_178
*1571 FILLER_0_35_186
*1572 FILLER_0_35_220
*1573 FILLER_0_35_225
*1574 FILLER_0_35_231
*1575 FILLER_0_35_247
*1576 FILLER_0_35_259
*1577 FILLER_0_35_279
*1578 FILLER_0_35_28
*1579 FILLER_0_35_3
*1580 FILLER_0_35_323
*1581 FILLER_0_35_330
*1582 FILLER_0_35_334
*1583 FILLER_0_35_50
*1584 FILLER_0_35_55
*1585 FILLER_0_35_73
*1586 FILLER_0_35_77
*1587 FILLER_0_35_9
*1588 FILLER_0_36_127
*1589 FILLER_0_36_141
*1590 FILLER_0_36_145
*1591 FILLER_0_36_185
*1592 FILLER_0_36_193
*1593 FILLER_0_36_225
*1594 FILLER_0_36_23
*1595 FILLER_0_36_251
*1596 FILLER_0_36_27
*1597 FILLER_0_36_282
*1598 FILLER_0_36_29
*1599 FILLER_0_36_3
*1600 FILLER_0_36_309
*1601 FILLER_0_36_33
*1602 FILLER_0_36_332
*1603 FILLER_0_36_50
*1604 FILLER_0_36_94
*1605 FILLER_0_37_11
*1606 FILLER_0_37_116
*1607 FILLER_0_37_149
*1608 FILLER_0_37_16
*1609 FILLER_0_37_169
*1610 FILLER_0_37_186
*1611 FILLER_0_37_199
*1612 FILLER_0_37_218
*1613 FILLER_0_37_225
*1614 FILLER_0_37_231
*1615 FILLER_0_37_265
*1616 FILLER_0_37_281
*1617 FILLER_0_37_289
*1618 FILLER_0_37_3
*1619 FILLER_0_37_333
*1620 FILLER_0_37_40
*1621 FILLER_0_37_69
*1622 FILLER_0_37_81
*1623 FILLER_0_37_93
*1624 FILLER_0_38_10
*1625 FILLER_0_38_100
*1626 FILLER_0_38_110
*1627 FILLER_0_38_113
*1628 FILLER_0_38_118
*1629 FILLER_0_38_122
*1630 FILLER_0_38_126
*1631 FILLER_0_38_138
*1632 FILLER_0_38_14
*1633 FILLER_0_38_141
*1634 FILLER_0_38_153
*1635 FILLER_0_38_161
*1636 FILLER_0_38_166
*1637 FILLER_0_38_169
*1638 FILLER_0_38_174
*1639 FILLER_0_38_18
*1640 FILLER_0_38_186
*1641 FILLER_0_38_194
*1642 FILLER_0_38_197
*1643 FILLER_0_38_209
*1644 FILLER_0_38_22
*1645 FILLER_0_38_221
*1646 FILLER_0_38_225
*1647 FILLER_0_38_233
*1648 FILLER_0_38_238
*1649 FILLER_0_38_242
*1650 FILLER_0_38_246
*1651 FILLER_0_38_253
*1652 FILLER_0_38_262
*1653 FILLER_0_38_266
*1654 FILLER_0_38_270
*1655 FILLER_0_38_274
*1656 FILLER_0_38_278
*1657 FILLER_0_38_281
*1658 FILLER_0_38_286
*1659 FILLER_0_38_290
*1660 FILLER_0_38_294
*1661 FILLER_0_38_298
*1662 FILLER_0_38_302
*1663 FILLER_0_38_32
*1664 FILLER_0_38_334
*1665 FILLER_0_38_38
*1666 FILLER_0_38_42
*1667 FILLER_0_38_46
*1668 FILLER_0_38_54
*1669 FILLER_0_38_57
*1670 FILLER_0_38_6
*1671 FILLER_0_38_62
*1672 FILLER_0_38_66
*1673 FILLER_0_38_70
*1674 FILLER_0_38_74
*1675 FILLER_0_38_78
*1676 FILLER_0_38_88
*1677 FILLER_0_38_94
*1678 FILLER_0_3_104
*1679 FILLER_0_3_138
*1680 FILLER_0_3_15
*1681 FILLER_0_3_150
*1682 FILLER_0_3_162
*1683 FILLER_0_3_169
*1684 FILLER_0_3_181
*1685 FILLER_0_3_193
*1686 FILLER_0_3_205
*1687 FILLER_0_3_217
*1688 FILLER_0_3_223
*1689 FILLER_0_3_225
*1690 FILLER_0_3_237
*1691 FILLER_0_3_27
*1692 FILLER_0_3_275
*1693 FILLER_0_3_279
*1694 FILLER_0_3_281
*1695 FILLER_0_3_293
*1696 FILLER_0_3_3
*1697 FILLER_0_3_305
*1698 FILLER_0_3_317
*1699 FILLER_0_3_329
*1700 FILLER_0_3_39
*1701 FILLER_0_3_51
*1702 FILLER_0_3_55
*1703 FILLER_0_3_57
*1704 FILLER_0_4_109
*1705 FILLER_0_4_121