*SPEF "ieee 1481-1999"
*DESIGN "tt_um_spiff42_exp_led_pwm"
*DATE "15:15:36 Friday April 19, 2024"
*VENDOR "The OpenROAD Project"
*PROGRAM "OpenROAD"
*VERSION "0889970d1790a2617e69f253221b8bd7626e51dc"
*DESIGN_FLOW "NAME_SCOPE LOCAL" "PIN_CAP NONE"
*DIVIDER /
*DELIMITER :
*BUS_DELIMITER []
*T_UNIT 1 NS
*C_UNIT 1 PF
*R_UNIT 1 OHM
*L_UNIT 1 HENRY

*NAME_MAP
*3 clk
*4 ena
*5 rst_n
*6 ui_in[0]
*7 ui_in[1]
*8 ui_in[2]
*9 ui_in[3]
*10 ui_in[4]
*11 ui_in[5]
*12 ui_in[6]
*13 ui_in[7]
*14 uio_in[0]
*15 uio_in[1]
*16 uio_in[2]
*17 uio_in[3]
*18 uio_in[4]
*19 uio_in[5]
*20 uio_in[6]
*21 uio_in[7]
*22 net22
*23 uio_oe[1]
*24 net23
*25 net24
*26 net25
*27 net26
*28 net27
*29 net28
*30 net29
*31 net30
*32 net31
*33 net32
*34 net33
*35 net34
*36 net35
*37 net36
*38 uo_out[0]
*39 uo_out[1]
*40 uo_out[2]
*41 uo_out[3]
*42 uo_out[4]
*43 uo_out[5]
*44 uo_out[6]
*45 uo_out[7]
*46 _0000_
*47 _0001_
*48 _0002_
*49 _0003_
*50 _0004_
*51 _0005_
*52 _0006_
*53 _0007_
*54 _0008_
*55 _0009_
*56 _0010_
*57 _0011_
*58 _0012_
*59 _0013_
*60 _0014_
*61 _0015_
*62 _0016_
*63 _0017_
*64 _0018_
*65 _0019_
*66 _0020_
*67 _0021_
*68 _0022_
*69 _0023_
*70 _0024_
*71 _0025_
*72 _0026_
*73 _0027_
*74 _0028_
*75 _0029_
*76 _0030_
*77 _0031_
*78 _0032_
*79 _0033_
*80 _0034_
*81 _0035_
*82 _0036_
*83 _0037_
*84 _0038_
*85 _0039_
*86 _0040_
*87 _0041_
*88 _0042_
*89 _0043_
*90 _0044_
*91 _0045_
*92 _0046_
*93 _0047_
*94 _0048_
*95 _0049_
*96 _0050_
*97 _0051_
*98 _0052_
*99 _0053_
*100 _0054_
*101 _0055_
*102 _0056_
*103 _0057_
*104 _0058_
*105 _0059_
*106 _0060_
*107 _0061_
*108 _0062_
*109 _0063_
*110 _0064_
*111 _0065_
*112 _0066_
*113 _0067_
*114 _0068_
*115 _0069_
*116 _0070_
*117 _0071_
*118 _0072_
*119 _0073_
*120 _0074_
*121 _0075_
*122 _0076_
*123 _0077_
*124 _0078_
*125 _0079_
*126 _0080_
*127 _0081_
*128 _0082_
*129 _0083_
*130 _0084_
*131 _0085_
*132 _0086_
*133 _0087_
*134 _0088_
*135 _0089_
*136 _0090_
*137 _0091_
*138 _0092_
*139 _0093_
*140 _0094_
*141 _0095_
*142 _0096_
*143 _0097_
*144 _0098_
*145 _0099_
*146 _0100_
*147 _0101_
*148 _0102_
*149 _0103_
*150 _0104_
*151 _0105_
*152 _0106_
*153 _0107_
*154 _0108_
*155 _0109_
*156 _0110_
*157 _0111_
*158 _0112_
*159 _0113_
*160 _0114_
*161 _0115_
*162 _0116_
*163 _0117_
*164 _0118_
*165 _0119_
*166 _0120_
*167 _0121_
*168 _0122_
*169 _0123_
*170 _0124_
*171 _0125_
*172 _0126_
*173 _0127_
*174 _0128_
*175 _0129_
*176 _0130_
*177 _0131_
*178 _0132_
*179 _0133_
*180 _0134_
*181 _0135_
*182 _0136_
*183 _0137_
*184 _0138_
*185 _0139_
*186 _0140_
*187 _0141_
*188 _0142_
*189 _0143_
*190 _0144_
*191 _0145_
*192 _0146_
*193 _0147_
*194 _0148_
*195 _0149_
*196 _0150_
*197 _0151_
*198 _0152_
*199 _0153_
*200 _0154_
*201 _0155_
*202 _0156_
*203 _0157_
*204 _0158_
*205 _0159_
*206 _0160_
*207 _0161_
*208 _0162_
*209 _0163_
*210 _0164_
*211 _0165_
*212 _0166_
*213 _0167_
*214 _0168_
*215 _0169_
*216 _0170_
*217 _0171_
*218 _0172_
*219 _0173_
*220 _0174_
*221 _0175_
*222 _0176_
*223 _0177_
*224 _0178_
*225 _0179_
*226 _0180_
*227 _0181_
*228 _0182_
*229 _0183_
*230 _0184_
*231 _0185_
*232 _0186_
*233 _0187_
*234 _0188_
*235 _0189_
*236 _0190_
*237 _0191_
*238 _0192_
*239 _0193_
*240 _0194_
*241 _0195_
*242 _0196_
*243 _0197_
*244 _0198_
*245 _0199_
*246 _0200_
*247 _0201_
*248 _0202_
*249 _0203_
*250 _0204_
*251 _0205_
*252 _0206_
*253 _0207_
*254 _0208_
*255 _0209_
*256 _0210_
*257 _0211_
*258 _0212_
*259 _0213_
*260 _0214_
*261 _0215_
*262 _0216_
*263 _0217_
*264 _0218_
*265 _0219_
*266 _0220_
*267 _0221_
*268 _0222_
*269 _0223_
*270 _0224_
*271 _0225_
*272 _0226_
*273 _0227_
*274 _0228_
*275 _0229_
*276 _0230_
*277 _0231_
*278 _0232_
*279 _0233_
*280 _0234_
*281 _0235_
*282 _0236_
*283 _0237_
*284 _0238_
*285 _0239_
*286 _0240_
*287 _0241_
*288 _0242_
*289 _0243_
*290 _0244_
*291 _0245_
*292 _0246_
*293 _0247_
*294 _0248_
*295 _0249_
*296 _0250_
*297 _0251_
*298 _0252_
*299 _0253_
*300 _0254_
*301 _0255_
*302 _0256_
*303 _0257_
*304 _0258_
*305 _0259_
*306 _0260_
*307 _0261_
*308 _0262_
*309 _0263_
*310 _0264_
*311 _0265_
*312 _0266_
*313 _0267_
*314 _0268_
*315 _0269_
*316 _0270_
*317 _0271_
*318 _0272_
*319 _0273_
*320 _0274_
*321 _0275_
*322 _0276_
*323 _0277_
*324 _0278_
*325 _0279_
*326 _0280_
*327 _0281_
*328 _0282_
*329 _0283_
*330 _0284_
*331 _0285_
*332 _0286_
*333 _0287_
*334 _0288_
*335 _0289_
*336 _0290_
*337 _0291_
*338 _0292_
*339 _0293_
*340 _0294_
*341 _0295_
*342 _0296_
*343 _0297_
*344 _0298_
*345 _0299_
*346 _0300_
*347 _0301_
*348 _0302_
*349 _0303_
*350 _0304_
*351 _0305_
*352 _0306_
*353 _0307_
*354 _0308_
*355 _0309_
*356 _0310_
*357 _0311_
*358 _0312_
*359 _0313_
*360 _0314_
*361 _0315_
*362 _0316_
*363 _0317_
*364 _0318_
*365 _0319_
*366 _0320_
*367 _0321_
*368 _0322_
*369 _0323_
*370 _0324_
*371 _0325_
*372 _0326_
*373 _0327_
*374 _0328_
*375 _0329_
*376 _0330_
*377 _0331_
*378 _0332_
*379 _0333_
*380 _0334_
*381 _0335_
*382 _0336_
*383 _0337_
*384 _0338_
*385 _0339_
*386 _0340_
*387 _0341_
*388 _0342_
*389 _0343_
*390 _0344_
*391 _0345_
*392 _0346_
*393 _0347_
*394 _0348_
*395 _0349_
*396 _0350_
*397 _0351_
*398 _0352_
*399 _0353_
*400 _0354_
*401 _0355_
*402 _0356_
*403 _0357_
*404 _0358_
*405 _0359_
*406 _0360_
*407 _0361_
*408 _0362_
*409 _0363_
*410 _0364_
*411 _0365_
*412 _0366_
*413 _0367_
*414 _0368_
*415 _0369_
*416 _0370_
*417 _0371_
*418 _0372_
*419 _0373_
*420 _0374_
*421 _0375_
*422 _0376_
*423 _0377_
*424 _0378_
*425 _0379_
*426 _0380_
*427 _0381_
*428 _0382_
*429 _0383_
*430 _0384_
*431 _0385_
*432 _0386_
*433 _0387_
*434 _0388_
*435 _0389_
*436 _0390_
*437 _0391_
*438 _0392_
*439 _0393_
*440 _0394_
*441 _0395_
*442 _0396_
*443 _0397_
*444 _0398_
*445 _0399_
*446 _0400_
*447 _0401_
*448 _0402_
*449 _0403_
*450 _0404_
*451 _0405_
*452 _0406_
*453 _0407_
*454 _0408_
*455 _0409_
*456 _0410_
*457 _0411_
*458 _0412_
*459 _0413_
*460 _0414_
*461 _0415_
*462 _0416_
*463 _0417_
*464 _0418_
*465 _0419_
*466 _0420_
*467 _0421_
*468 _0422_
*469 _0423_
*470 _0424_
*471 _0425_
*472 _0426_
*473 _0427_
*474 _0428_
*475 _0429_
*476 _0430_
*477 _0431_
*478 _0432_
*479 _0433_
*480 _0434_
*481 _0435_
*482 _0436_
*483 _0437_
*484 _0438_
*485 _0439_
*486 _0440_
*487 _0441_
*488 _0442_
*489 _0443_
*490 _0444_
*491 _0445_
*492 _0446_
*493 _0447_
*494 _0448_
*495 _0449_
*496 _0450_
*497 _0451_
*498 _0452_
*499 _0453_
*500 _0454_
*501 _0455_
*502 _0456_
*503 _0457_
*504 _0458_
*505 _0459_
*506 _0460_
*507 _0461_
*508 _0462_
*509 _0463_
*510 _0464_
*511 _0465_
*512 _0466_
*513 _0467_
*514 _0468_
*515 _0469_
*516 _0470_
*517 _0471_
*518 _0472_
*519 _0473_
*520 _0474_
*521 _0475_
*522 _0476_
*523 _0477_
*524 _0478_
*525 _0479_
*526 _0480_
*527 _0481_
*528 _0482_
*529 _0483_
*530 _0484_
*531 _0485_
*532 _0486_
*533 _0487_
*534 _0488_
*535 _0489_
*536 _0490_
*537 _0491_
*538 _0492_
*539 _0493_
*540 _0494_
*541 _0495_
*542 _0496_
*543 _0497_
*544 _0498_
*545 _0499_
*546 _0500_
*547 _0501_
*548 _0502_
*549 _0503_
*550 _0504_
*551 _0505_
*552 _0506_
*553 _0507_
*554 _0508_
*555 _0509_
*556 _0510_
*557 _0511_
*558 _0512_
*559 _0513_
*560 _0514_
*561 _0515_
*562 _0516_
*563 _0517_
*564 _0518_
*565 _0519_
*566 _0520_
*567 _0521_
*568 _0522_
*569 _0523_
*570 _0524_
*571 _0525_
*572 _0526_
*573 _0527_
*574 _0528_
*575 _0529_
*576 _0530_
*577 _0531_
*578 _0532_
*579 _0533_
*580 _0534_
*581 _0535_
*582 _0536_
*583 _0537_
*584 _0538_
*585 _0539_
*586 _0540_
*587 _0541_
*588 _0542_
*589 _0543_
*590 _0544_
*591 _0545_
*592 _0546_
*593 _0547_
*594 _0548_
*595 _0549_
*596 _0550_
*597 _0551_
*598 _0552_
*599 _0553_
*600 _0554_
*601 _0555_
*602 _0556_
*603 _0557_
*604 _0558_
*605 _0559_
*606 _0560_
*607 _0561_
*608 _0562_
*609 _0563_
*610 _0564_
*611 _0565_
*612 _0566_
*613 _0567_
*614 _0568_
*615 _0569_
*616 _0570_
*617 _0571_
*618 _0572_
*619 _0573_
*620 _0574_
*621 _0575_
*622 _0576_
*623 _0577_
*624 _0578_
*625 _0579_
*626 _0580_
*627 _0581_
*628 _0582_
*629 _0583_
*630 _0584_
*631 _0585_
*632 _0586_
*633 _0587_
*634 _0588_
*635 _0589_
*636 _0590_
*637 _0591_
*638 _0592_
*639 _0593_
*640 _0594_
*641 _0595_
*642 _0596_
*643 _0597_
*644 _0598_
*645 _0599_
*646 _0600_
*647 _0601_
*648 _0602_
*649 _0603_
*650 _0604_
*651 _0605_
*652 _0606_
*653 _0607_
*654 _0608_
*655 _0609_
*656 _0610_
*657 _0611_
*658 _0612_
*659 _0613_
*660 _0614_
*661 _0615_
*662 _0616_
*663 _0617_
*664 _0618_
*665 _0619_
*666 _0620_
*667 _0621_
*668 _0622_
*669 _0623_
*670 _0624_
*671 _0625_
*672 clknet_0_clk
*673 clknet_4_0_0_clk
*674 clknet_4_10_0_clk
*675 clknet_4_11_0_clk
*676 clknet_4_12_0_clk
*677 clknet_4_13_0_clk
*678 clknet_4_14_0_clk
*679 clknet_4_15_0_clk
*680 clknet_4_1_0_clk
*681 clknet_4_2_0_clk
*682 clknet_4_3_0_clk
*683 clknet_4_4_0_clk
*684 clknet_4_5_0_clk
*685 clknet_4_6_0_clk
*686 clknet_4_7_0_clk
*687 clknet_4_8_0_clk
*688 clknet_4_9_0_clk
*689 i2c\.addr\[0\]
*690 i2c\.addr\[1\]
*691 i2c\.addr\[2\]
*692 i2c\.addr\[3\]
*693 i2c\.addr\[4\]
*694 i2c\.addr\[5\]
*695 i2c\.addr\[6\]
*696 i2c\.addr\[7\]
*697 i2c\.bus_start
*698 i2c\.bus_stop
*699 i2c\.dbyte\[0\]
*700 i2c\.dbyte\[1\]
*701 i2c\.dbyte\[2\]
*702 i2c\.dbyte\[3\]
*703 i2c\.dbyte\[4\]
*704 i2c\.dbyte\[5\]
*705 i2c\.dbyte\[6\]
*706 i2c\.dbyte\[7\]
*707 i2c\.last_event\[0\]
*708 i2c\.last_event\[3\]
*709 i2c\.pull_sda
*710 i2c\.scl_d\[0\]
*711 i2c\.scl_d\[1\]
*712 i2c\.scl_d\[2\]
*713 i2c\.scl_d\[3\]
*714 i2c\.sda_d\[0\]
*715 i2c\.sda_d\[1\]
*716 i2c\.sda_d\[2\]
*717 i2c\.sda_d\[3\]
*718 i2c\.wen
*719 i2c_control
*720 net1
*721 net10
*722 net11
*723 net12
*724 net13
*725 net14
*726 net15
*727 net16
*728 net17
*729 net18
*730 net19
*731 net2
*732 net20
*733 net21
*734 net3
*735 net37
*736 net38
*737 net39
*738 net4
*739 net40
*740 net41
*741 net42
*742 net43
*743 net44
*744 net45
*745 net46
*746 net47
*747 net48
*748 net49
*749 net5
*750 net50
*751 net51
*752 net52
*753 net53
*754 net54
*755 net55
*756 net56
*757 net57
*758 net58
*759 net59
*760 net6
*761 net60
*762 net61
*763 net62
*764 net63
*765 net64
*766 net65
*767 net66
*768 net67
*769 net68
*770 net69
*771 net7
*772 net70
*773 net71
*774 net72
*775 net73
*776 net74
*777 net75
*778 net76
*779 net77
*780 net78
*781 net79
*782 net8
*783 net80
*784 net81
*785 net82
*786 net83
*787 net84
*788 net85
*789 net9
*790 pwmch_0\.ch
*791 pwmch_0\.ramp\[0\]
*792 pwmch_0\.ramp\[1\]
*793 pwmch_0\.ramp\[2\]
*794 pwmch_0\.ramp\[3\]
*795 pwmch_0\.ramp\[4\]
*796 pwmch_0\.ramp\[5\]
*797 pwmch_0\.ramp\[6\]
*798 pwmch_0\.ramp\[7\]
*799 pwmch_0\.value\[0\]
*800 pwmch_0\.value\[1\]
*801 pwmch_0\.value\[2\]
*802 pwmch_0\.value\[3\]
*803 pwmch_0\.value\[4\]
*804 pwmch_0\.value\[5\]
*805 pwmch_0\.value\[6\]
*806 pwmch_0\.value\[7\]
*807 pwmch_1\.ch
*808 pwmch_1\.value\[0\]
*809 pwmch_1\.value\[1\]
*810 pwmch_1\.value\[2\]
*811 pwmch_1\.value\[3\]
*812 pwmch_1\.value\[4\]
*813 pwmch_1\.value\[5\]
*814 pwmch_1\.value\[6\]
*815 pwmch_1\.value\[7\]
*816 pwmch_2\.ch
*817 pwmch_2\.value\[0\]
*818 pwmch_2\.value\[1\]
*819 pwmch_2\.value\[2\]
*820 pwmch_2\.value\[3\]
*821 pwmch_2\.value\[4\]
*822 pwmch_2\.value\[5\]
*823 pwmch_2\.value\[6\]
*824 pwmch_2\.value\[7\]
*825 pwmch_3\.ch
*826 pwmch_3\.value\[0\]
*827 pwmch_3\.value\[1\]
*828 pwmch_3\.value\[2\]
*829 pwmch_3\.value\[3\]
*830 pwmch_3\.value\[4\]
*831 pwmch_3\.value\[5\]
*832 pwmch_3\.value\[6\]
*833 pwmch_3\.value\[7\]
*834 pwmch_4\.ch
*835 pwmch_4\.value\[0\]
*836 pwmch_4\.value\[1\]
*837 pwmch_4\.value\[2\]
*838 pwmch_4\.value\[3\]
*839 pwmch_4\.value\[4\]
*840 pwmch_4\.value\[5\]
*841 pwmch_4\.value\[6\]
*842 pwmch_4\.value\[7\]
*843 pwmch_5\.ch
*844 pwmch_5\.value\[0\]
*845 pwmch_5\.value\[1\]
*846 pwmch_5\.value\[2\]
*847 pwmch_5\.value\[3\]
*848 pwmch_5\.value\[4\]
*849 pwmch_5\.value\[5\]
*850 pwmch_5\.value\[6\]
*851 pwmch_5\.value\[7\]
*852 pwmch_6\.ch
*853 pwmch_6\.value\[0\]
*854 pwmch_6\.value\[1\]
*855 pwmch_6\.value\[2\]
*856 pwmch_6\.value\[3\]
*857 pwmch_6\.value\[4\]
*858 pwmch_6\.value\[5\]
*859 pwmch_6\.value\[6\]
*860 pwmch_6\.value\[7\]
*861 pwmch_7\.ch
*862 pwmch_7\.value\[0\]
*863 pwmch_7\.value\[1\]
*864 pwmch_7\.value\[2\]
*865 pwmch_7\.value\[3\]
*866 pwmch_7\.value\[4\]
*867 pwmch_7\.value\[5\]
*868 pwmch_7\.value\[6\]
*869 pwmch_7\.value\[7\]
*870 ramp_gen\.ramp_low\[0\]
*871 ramp_gen\.ramp_low\[1\]
*872 ramp_gen\.ramp_low\[2\]
*873 ramp_gen\.ramp_low\[3\]
*874 ramp_gen\.ramp_low\[4\]
*875 ramp_gen\.ramp_low\[5\]
*876 ramp_gen\.ramp_low\[6\]
*877 ramp_gen\.ramp_low\[7\]
*878 ramp_gen\.ramp_low\[8\]
*879 ramp_gen\.ramp_low\[9\]
*880 ANTENNA_1
*881 FILLER_0_0_109
*882 FILLER_0_0_113
*883 FILLER_0_0_125
*884 FILLER_0_0_137
*885 FILLER_0_0_141
*886 FILLER_0_0_15
*887 FILLER_0_0_153
*888 FILLER_0_0_165
*889 FILLER_0_0_169
*890 FILLER_0_0_181
*891 FILLER_0_0_193
*892 FILLER_0_0_197
*893 FILLER_0_0_209
*894 FILLER_0_0_221
*895 FILLER_0_0_225
*896 FILLER_0_0_237
*897 FILLER_0_0_249
*898 FILLER_0_0_253
*899 FILLER_0_0_265
*900 FILLER_0_0_27
*901 FILLER_0_0_277
*902 FILLER_0_0_281
*903 FILLER_0_0_29
*904 FILLER_0_0_293
*905 FILLER_0_0_3
*906 FILLER_0_0_305
*907 FILLER_0_0_309
*908 FILLER_0_0_321
*909 FILLER_0_0_333
*910 FILLER_0_0_41
*911 FILLER_0_0_53
*912 FILLER_0_0_57
*913 FILLER_0_0_69
*914 FILLER_0_0_81
*915 FILLER_0_0_85
*916 FILLER_0_0_97
*917 FILLER_0_10_107
*918 FILLER_0_10_119
*919 FILLER_0_10_131
*920 FILLER_0_10_139
*921 FILLER_0_10_141
*922 FILLER_0_10_148
*923 FILLER_0_10_15
*924 FILLER_0_10_159
*925 FILLER_0_10_171
*926 FILLER_0_10_193
*927 FILLER_0_10_201
*928 FILLER_0_10_213
*929 FILLER_0_10_221
*930 FILLER_0_10_244
*931 FILLER_0_10_251
*932 FILLER_0_10_259
*933 FILLER_0_10_27
*934 FILLER_0_10_271
*935 FILLER_0_10_29
*936 FILLER_0_10_3
*937 FILLER_0_10_307
*938 FILLER_0_10_309
*939 FILLER_0_10_317
*940 FILLER_0_10_323
*941 FILLER_0_10_41
*942 FILLER_0_10_53
*943 FILLER_0_10_65
*944 FILLER_0_10_81
*945 FILLER_0_10_98
*946 FILLER_0_11_119
*947 FILLER_0_11_133
*948 FILLER_0_11_145
*949 FILLER_0_11_15
*950 FILLER_0_11_156
*951 FILLER_0_11_169
*952 FILLER_0_11_193
*953 FILLER_0_11_207
*954 FILLER_0_11_225
*955 FILLER_0_11_259
*956 FILLER_0_11_265
*957 FILLER_0_11_27
*958 FILLER_0_11_299
*959 FILLER_0_11_3
*960 FILLER_0_11_307
*961 FILLER_0_11_311
*962 FILLER_0_11_323
*963 FILLER_0_11_39
*964 FILLER_0_11_51
*965 FILLER_0_11_55
*966 FILLER_0_12_106
*967 FILLER_0_12_119
*968 FILLER_0_12_128
*969 FILLER_0_12_141
*970 FILLER_0_12_145
*971 FILLER_0_12_15
*972 FILLER_0_12_157
*973 FILLER_0_12_197
*974 FILLER_0_12_230
*975 FILLER_0_12_238
*976 FILLER_0_12_251
*977 FILLER_0_12_268
*978 FILLER_0_12_27
*979 FILLER_0_12_284
*980 FILLER_0_12_29
*981 FILLER_0_12_297
*982 FILLER_0_12_3
*983 FILLER_0_12_333
*984 FILLER_0_12_41
*985 FILLER_0_12_49
*986 FILLER_0_12_83
*987 FILLER_0_12_95
*988 FILLER_0_13_101
*989 FILLER_0_13_109
*990 FILLER_0_13_119
*991 FILLER_0_13_123
*992 FILLER_0_13_15
*993 FILLER_0_13_154
*994 FILLER_0_13_166
*995 FILLER_0_13_189
*996 FILLER_0_13_207
*997 FILLER_0_13_216
*998 FILLER_0_13_225
*999 FILLER_0_13_237
*1000 FILLER_0_13_241
*1001 FILLER_0_13_250
*1002 FILLER_0_13_258
*1003 FILLER_0_13_27
*1004 FILLER_0_13_291
*1005 FILLER_0_13_299
*1006 FILLER_0_13_3
*1007 FILLER_0_13_333
*1008 FILLER_0_13_39
*1009 FILLER_0_13_51
*1010 FILLER_0_13_55
*1011 FILLER_0_13_57
*1012 FILLER_0_13_89
*1013 FILLER_0_14_116
*1014 FILLER_0_14_125
*1015 FILLER_0_14_134
*1016 FILLER_0_14_141
*1017 FILLER_0_14_15
*1018 FILLER_0_14_153
*1019 FILLER_0_14_161
*1020 FILLER_0_14_170
*1021 FILLER_0_14_175
*1022 FILLER_0_14_195
*1023 FILLER_0_14_203
*1024 FILLER_0_14_215
*1025 FILLER_0_14_227
*1026 FILLER_0_14_239
*1027 FILLER_0_14_27
*1028 FILLER_0_14_278
*1029 FILLER_0_14_284
*1030 FILLER_0_14_29
*1031 FILLER_0_14_296
*1032 FILLER_0_14_3
*1033 FILLER_0_14_331
*1034 FILLER_0_14_41
*1035 FILLER_0_14_65
*1036 FILLER_0_14_73
*1037 FILLER_0_14_81
*1038 FILLER_0_14_90
*1039 FILLER_0_15_113
*1040 FILLER_0_15_125
*1041 FILLER_0_15_136
*1042 FILLER_0_15_144
*1043 FILLER_0_15_15
*1044 FILLER_0_15_156
*1045 FILLER_0_15_162
*1046 FILLER_0_15_166
*1047 FILLER_0_15_175
*1048 FILLER_0_15_187
*1049 FILLER_0_15_199
*1050 FILLER_0_15_206
*1051 FILLER_0_15_210
*1052 FILLER_0_15_220
*1053 FILLER_0_15_27
*1054 FILLER_0_15_285
*1055 FILLER_0_15_295
*1056 FILLER_0_15_3
*1057 FILLER_0_15_303
*1058 FILLER_0_15_334
*1059 FILLER_0_15_39
*1060 FILLER_0_15_51
*1061 FILLER_0_15_55
*1062 FILLER_0_15_57
*1063 FILLER_0_15_69
*1064 FILLER_0_15_84
*1065 FILLER_0_16_101
*1066 FILLER_0_16_113
*1067 FILLER_0_16_119
*1068 FILLER_0_16_129
*1069 FILLER_0_16_137
*1070 FILLER_0_16_141
*1071 FILLER_0_16_148
*1072 FILLER_0_16_15
*1073 FILLER_0_16_156
*1074 FILLER_0_16_176
*1075 FILLER_0_16_188
*1076 FILLER_0_16_217
*1077 FILLER_0_16_221
*1078 FILLER_0_16_251
*1079 FILLER_0_16_27
*1080 FILLER_0_16_282
*1081 FILLER_0_16_29
*1082 FILLER_0_16_294
*1083 FILLER_0_16_3
*1084 FILLER_0_16_306
*1085 FILLER_0_16_333
*1086 FILLER_0_16_41
*1087 FILLER_0_16_85
*1088 FILLER_0_17_100
*1089 FILLER_0_17_104
*1090 FILLER_0_17_109
*1091 FILLER_0_17_113
*1092 FILLER_0_17_131
*1093 FILLER_0_17_139
*1094 FILLER_0_17_15
*1095 FILLER_0_17_185
*1096 FILLER_0_17_197
*1097 FILLER_0_17_217
*1098 FILLER_0_17_223
*1099 FILLER_0_17_225
*1100 FILLER_0_17_237
*1101 FILLER_0_17_249
*1102 FILLER_0_17_257
*1103 FILLER_0_17_262
*1104 FILLER_0_17_27
*1105 FILLER_0_17_279
*1106 FILLER_0_17_281
*1107 FILLER_0_17_293
*1108 FILLER_0_17_3
*1109 FILLER_0_17_301
*1110 FILLER_0_17_334
*1111 FILLER_0_17_39
*1112 FILLER_0_17_51
*1113 FILLER_0_17_55
*1114 FILLER_0_17_96
*1115 FILLER_0_18_101
*1116 FILLER_0_18_108
*1117 FILLER_0_18_133
*1118 FILLER_0_18_139
*1119 FILLER_0_18_141
*1120 FILLER_0_18_15
*1121 FILLER_0_18_158
*1122 FILLER_0_18_192
*1123 FILLER_0_18_197
*1124 FILLER_0_18_22
*1125 FILLER_0_18_226
*1126 FILLER_0_18_238
*1127 FILLER_0_18_250
*1128 FILLER_0_18_253
*1129 FILLER_0_18_3
*1130 FILLER_0_18_309
*1131 FILLER_0_18_45
*1132 FILLER_0_18_57
*1133 FILLER_0_18_61
*1134 FILLER_0_18_88
*1135 FILLER_0_19_104
*1136 FILLER_0_19_11
*1137 FILLER_0_19_113
*1138 FILLER_0_19_117
*1139 FILLER_0_19_121
*1140 FILLER_0_19_131
*1141 FILLER_0_19_143
*1142 FILLER_0_19_155
*1143 FILLER_0_19_159
*1144 FILLER_0_19_163
*1145 FILLER_0_19_167
*1146 FILLER_0_19_178
*1147 FILLER_0_19_190
*1148 FILLER_0_19_202
*1149 FILLER_0_19_218
*1150 FILLER_0_19_225
*1151 FILLER_0_19_237
*1152 FILLER_0_19_263
*1153 FILLER_0_19_275
*1154 FILLER_0_19_281
*1155 FILLER_0_19_29
*1156 FILLER_0_19_293
*1157 FILLER_0_19_299
*1158 FILLER_0_19_3
*1159 FILLER_0_19_334
*1160 FILLER_0_19_42
*1161 FILLER_0_19_54
*1162 FILLER_0_19_57
*1163 FILLER_0_19_69
*1164 FILLER_0_19_77
*1165 FILLER_0_19_83
*1166 FILLER_0_1_105
*1167 FILLER_0_1_111
*1168 FILLER_0_1_113
*1169 FILLER_0_1_125
*1170 FILLER_0_1_137
*1171 FILLER_0_1_149
*1172 FILLER_0_1_15
*1173 FILLER_0_1_161
*1174 FILLER_0_1_167
*1175 FILLER_0_1_169
*1176 FILLER_0_1_181
*1177 FILLER_0_1_193
*1178 FILLER_0_1_205
*1179 FILLER_0_1_217
*1180 FILLER_0_1_223
*1181 FILLER_0_1_225
*1182 FILLER_0_1_246
*1183 FILLER_0_1_258
*1184 FILLER_0_1_27
*1185 FILLER_0_1_270
*1186 FILLER_0_1_278
*1187 FILLER_0_1_281
*1188 FILLER_0_1_293
*1189 FILLER_0_1_3
*1190 FILLER_0_1_305
*1191 FILLER_0_1_317
*1192 FILLER_0_1_329
*1193 FILLER_0_1_39
*1194 FILLER_0_1_51
*1195 FILLER_0_1_55
*1196 FILLER_0_1_57
*1197 FILLER_0_1_69
*1198 FILLER_0_1_81
*1199 FILLER_0_1_93
*1200 FILLER_0_20_106
*1201 FILLER_0_20_11
*1202 FILLER_0_20_118
*1203 FILLER_0_20_134
*1204 FILLER_0_20_149
*1205 FILLER_0_20_155
*1206 FILLER_0_20_192
*1207 FILLER_0_20_223
*1208 FILLER_0_20_231
*1209 FILLER_0_20_237
*1210 FILLER_0_20_250
*1211 FILLER_0_20_280
*1212 FILLER_0_20_292
*1213 FILLER_0_20_3
*1214 FILLER_0_20_304
*1215 FILLER_0_20_309
*1216 FILLER_0_20_334
*1217 FILLER_0_20_38
*1218 FILLER_0_20_50
*1219 FILLER_0_20_69
*1220 FILLER_0_20_81
*1221 FILLER_0_20_85
*1222 FILLER_0_20_89
*1223 FILLER_0_21_111
*1224 FILLER_0_21_113
*1225 FILLER_0_21_15
*1226 FILLER_0_21_155
*1227 FILLER_0_21_186
*1228 FILLER_0_21_19
*1229 FILLER_0_21_223
*1230 FILLER_0_21_225
*1231 FILLER_0_21_23
*1232 FILLER_0_21_239
*1233 FILLER_0_21_272
*1234 FILLER_0_21_3
*1235 FILLER_0_21_304
*1236 FILLER_0_21_312
*1237 FILLER_0_21_322
*1238 FILLER_0_21_334
*1239 FILLER_0_21_36
*1240 FILLER_0_21_48
*1241 FILLER_0_21_82
*1242 FILLER_0_22_116
*1243 FILLER_0_22_141
*1244 FILLER_0_22_162
*1245 FILLER_0_22_174
*1246 FILLER_0_22_186
*1247 FILLER_0_22_214
*1248 FILLER_0_22_225
*1249 FILLER_0_22_238
*1250 FILLER_0_22_250
*1251 FILLER_0_22_253
*1252 FILLER_0_22_261
*1253 FILLER_0_22_269
*1254 FILLER_0_22_27
*1255 FILLER_0_22_279
*1256 FILLER_0_22_290
*1257 FILLER_0_22_3
*1258 FILLER_0_22_302
*1259 FILLER_0_22_309
*1260 FILLER_0_22_321
*1261 FILLER_0_22_333
*1262 FILLER_0_22_45
*1263 FILLER_0_22_77
*1264 FILLER_0_22_83
*1265 FILLER_0_22_85
*1266 FILLER_0_23_11
*1267 FILLER_0_23_110
*1268 FILLER_0_23_113
*1269 FILLER_0_23_125
*1270 FILLER_0_23_144
*1271 FILLER_0_23_154
*1272 FILLER_0_23_162
*1273 FILLER_0_23_167
*1274 FILLER_0_23_185
*1275 FILLER_0_23_203
*1276 FILLER_0_23_215
*1277 FILLER_0_23_223
*1278 FILLER_0_23_225
*1279 FILLER_0_23_249
*1280 FILLER_0_23_261
*1281 FILLER_0_23_269
*1282 FILLER_0_23_273
*1283 FILLER_0_23_279
*1284 FILLER_0_23_290
*1285 FILLER_0_23_3
*1286 FILLER_0_23_334
*1287 FILLER_0_23_50
*1288 FILLER_0_23_57
*1289 FILLER_0_23_68
*1290 FILLER_0_23_80
*1291 FILLER_0_24_109
*1292 FILLER_0_24_121
*1293 FILLER_0_24_133
*1294 FILLER_0_24_139
*1295 FILLER_0_24_141
*1296 FILLER_0_24_15
*1297 FILLER_0_24_160
*1298 FILLER_0_24_172
*1299 FILLER_0_24_184
*1300 FILLER_0_24_19
*1301 FILLER_0_24_195
*1302 FILLER_0_24_206
*1303 FILLER_0_24_218
*1304 FILLER_0_24_23
*1305 FILLER_0_24_250
*1306 FILLER_0_24_256
*1307 FILLER_0_24_260
*1308 FILLER_0_24_27
*1309 FILLER_0_24_273
*1310 FILLER_0_24_298
*1311 FILLER_0_24_3
*1312 FILLER_0_24_304
*1313 FILLER_0_24_309
*1314 FILLER_0_24_322
*1315 FILLER_0_24_334
*1316 FILLER_0_24_38
*1317 FILLER_0_24_50
*1318 FILLER_0_24_62
*1319 FILLER_0_24_74
*1320 FILLER_0_24_82
*1321 FILLER_0_24_85
*1322 FILLER_0_24_93
*1323 FILLER_0_25_109
*1324 FILLER_0_25_113
*1325 FILLER_0_25_147
*1326 FILLER_0_25_15
*1327 FILLER_0_25_167
*1328 FILLER_0_25_169
*1329 FILLER_0_25_181
*1330 FILLER_0_25_187
*1331 FILLER_0_25_19
*1332 FILLER_0_25_204
*1333 FILLER_0_25_216
*1334 FILLER_0_25_225
*1335 FILLER_0_25_23
*1336 FILLER_0_25_238
*1337 FILLER_0_25_257
*1338 FILLER_0_25_263
*1339 FILLER_0_25_27
*1340 FILLER_0_25_293
*1341 FILLER_0_25_297
*1342 FILLER_0_25_3
*1343 FILLER_0_25_331
*1344 FILLER_0_25_37
*1345 FILLER_0_25_73
*1346 FILLER_0_25_85
*1347 FILLER_0_25_93
*1348 FILLER_0_26_11
*1349 FILLER_0_26_116
*1350 FILLER_0_26_136
*1351 FILLER_0_26_149
*1352 FILLER_0_26_153
*1353 FILLER_0_26_160
*1354 FILLER_0_26_167
*1355 FILLER_0_26_175
*1356 FILLER_0_26_216
*1357 FILLER_0_26_263
*1358 FILLER_0_26_267
*1359 FILLER_0_26_278
*1360 FILLER_0_26_290
*1361 FILLER_0_26_3
*1362 FILLER_0_26_302
*1363 FILLER_0_26_309
*1364 FILLER_0_26_327
*1365 FILLER_0_26_45
*1366 FILLER_0_26_79
*1367 FILLER_0_26_83
*1368 FILLER_0_26_85
*1369 FILLER_0_27_110
*1370 FILLER_0_27_113
*1371 FILLER_0_27_121
*1372 FILLER_0_27_164
*1373 FILLER_0_27_177
*1374 FILLER_0_27_185
*1375 FILLER_0_27_206
*1376 FILLER_0_27_238
*1377 FILLER_0_27_252
*1378 FILLER_0_27_279
*1379 FILLER_0_27_281
*1380 FILLER_0_27_296
*1381 FILLER_0_27_3
*1382 FILLER_0_27_302
*1383 FILLER_0_27_31
*1384 FILLER_0_27_330
*1385 FILLER_0_27_334
*1386 FILLER_0_27_35
*1387 FILLER_0_27_57
*1388 FILLER_0_27_67
*1389 FILLER_0_27_75
*1390 FILLER_0_28_103
*1391 FILLER_0_28_116
*1392 FILLER_0_28_126
*1393 FILLER_0_28_138
*1394 FILLER_0_28_141
*1395 FILLER_0_28_15
*1396 FILLER_0_28_153
*1397 FILLER_0_28_170
*1398 FILLER_0_28_182
*1399 FILLER_0_28_19
*1400 FILLER_0_28_193
*1401 FILLER_0_28_197
*1402 FILLER_0_28_209
*1403 FILLER_0_28_23
*1404 FILLER_0_28_251
*1405 FILLER_0_28_259
*1406 FILLER_0_28_27
*1407 FILLER_0_28_29
*1408 FILLER_0_28_3
*1409 FILLER_0_28_309
*1410 FILLER_0_28_333
*1411 FILLER_0_28_35
*1412 FILLER_0_28_52
*1413 FILLER_0_28_56
*1414 FILLER_0_28_73
*1415 FILLER_0_28_81
*1416 FILLER_0_28_85
*1417 FILLER_0_29_11
*1418 FILLER_0_29_111
*1419 FILLER_0_29_129
*1420 FILLER_0_29_141
*1421 FILLER_0_29_169
*1422 FILLER_0_29_178
*1423 FILLER_0_29_278
*1424 FILLER_0_29_293
*1425 FILLER_0_29_3
*1426 FILLER_0_29_333
*1427 FILLER_0_29_40
*1428 FILLER_0_29_51
*1429 FILLER_0_29_57
*1430 FILLER_0_29_83
*1431 FILLER_0_29_95
*1432 FILLER_0_2_109
*1433 FILLER_0_2_121
*1434 FILLER_0_2_133
*1435 FILLER_0_2_139
*1436 FILLER_0_2_141
*1437 FILLER_0_2_15
*1438 FILLER_0_2_153
*1439 FILLER_0_2_165
*1440 FILLER_0_2_177
*1441 FILLER_0_2_189
*1442 FILLER_0_2_195
*1443 FILLER_0_2_197
*1444 FILLER_0_2_209
*1445 FILLER_0_2_233
*1446 FILLER_0_2_241
*1447 FILLER_0_2_250
*1448 FILLER_0_2_265
*1449 FILLER_0_2_27
*1450 FILLER_0_2_277
*1451 FILLER_0_2_289
*1452 FILLER_0_2_29
*1453 FILLER_0_2_3
*1454 FILLER_0_2_301
*1455 FILLER_0_2_307
*1456 FILLER_0_2_309
*1457 FILLER_0_2_321
*1458 FILLER_0_2_333
*1459 FILLER_0_2_41
*1460 FILLER_0_2_53
*1461 FILLER_0_2_65
*1462 FILLER_0_2_77
*1463 FILLER_0_2_83
*1464 FILLER_0_2_85
*1465 FILLER_0_2_97
*1466 FILLER_0_30_102
*1467 FILLER_0_30_11
*1468 FILLER_0_30_116
*1469 FILLER_0_30_125
*1470 FILLER_0_30_138
*1471 FILLER_0_30_146
*1472 FILLER_0_30_154
*1473 FILLER_0_30_172
*1474 FILLER_0_30_181
*1475 FILLER_0_30_193
*1476 FILLER_0_30_197
*1477 FILLER_0_30_209
*1478 FILLER_0_30_248
*1479 FILLER_0_30_253
*1480 FILLER_0_30_264
*1481 FILLER_0_30_280
*1482 FILLER_0_30_29
*1483 FILLER_0_30_292
*1484 FILLER_0_30_3
*1485 FILLER_0_30_329
*1486 FILLER_0_30_43
*1487 FILLER_0_30_55
*1488 FILLER_0_30_61
*1489 FILLER_0_30_74
*1490 FILLER_0_30_82
*1491 FILLER_0_30_85
*1492 FILLER_0_31_113
*1493 FILLER_0_31_124
*1494 FILLER_0_31_143
*1495 FILLER_0_31_15
*1496 FILLER_0_31_151
*1497 FILLER_0_31_159
*1498 FILLER_0_31_187
*1499 FILLER_0_31_211
*1500 FILLER_0_31_22
*1501 FILLER_0_31_244
*1502 FILLER_0_31_256
*1503 FILLER_0_31_272
*1504 FILLER_0_31_28
*1505 FILLER_0_31_281
*1506 FILLER_0_31_293
*1507 FILLER_0_31_3
*1508 FILLER_0_31_305
*1509 FILLER_0_31_333
*1510 FILLER_0_31_38
*1511 FILLER_0_31_50
*1512 FILLER_0_31_57
*1513 FILLER_0_31_71
*1514 FILLER_0_31_82
*1515 FILLER_0_31_86
*1516 FILLER_0_32_116
*1517 FILLER_0_32_141
*1518 FILLER_0_32_151
*1519 FILLER_0_32_167
*1520 FILLER_0_32_179
*1521 FILLER_0_32_191
*1522 FILLER_0_32_213
*1523 FILLER_0_32_237
*1524 FILLER_0_32_245
*1525 FILLER_0_32_253
*1526 FILLER_0_32_273
*1527 FILLER_0_32_277
*1528 FILLER_0_32_290
*1529 FILLER_0_32_3
*1530 FILLER_0_32_302
*1531 FILLER_0_32_309
*1532 FILLER_0_32_317
*1533 FILLER_0_32_38
*1534 FILLER_0_32_78
*1535 FILLER_0_33_111
*1536 FILLER_0_33_122
*1537 FILLER_0_33_148
*1538 FILLER_0_33_158
*1539 FILLER_0_33_169
*1540 FILLER_0_33_194
*1541 FILLER_0_33_207
*1542 FILLER_0_33_219
*1543 FILLER_0_33_223
*1544 FILLER_0_33_239
*1545 FILLER_0_33_251
*1546 FILLER_0_33_260
*1547 FILLER_0_33_273
*1548 FILLER_0_33_279
*1549 FILLER_0_33_281
*1550 FILLER_0_33_3
*1551 FILLER_0_33_334
*1552 FILLER_0_33_48
*1553 FILLER_0_33_57
*1554 FILLER_0_33_68
*1555 FILLER_0_33_76
*1556 FILLER_0_33_86
*1557 FILLER_0_33_9
*1558 FILLER_0_33_92
*1559 FILLER_0_34_101
*1560 FILLER_0_34_117
*1561 FILLER_0_34_129
*1562 FILLER_0_34_137
*1563 FILLER_0_34_141
*1564 FILLER_0_34_15
*1565 FILLER_0_34_150
*1566 FILLER_0_34_163
*1567 FILLER_0_34_175
*1568 FILLER_0_34_187
*1569 FILLER_0_34_213
*1570 FILLER_0_34_219
*1571 FILLER_0_34_246
*1572 FILLER_0_34_279
*1573 FILLER_0_34_287
*1574 FILLER_0_34_3
*1575 FILLER_0_34_307
*1576 FILLER_0_34_312
*1577 FILLER_0_34_324
*1578 FILLER_0_34_332
*1579 FILLER_0_34_38
*1580 FILLER_0_34_74
*1581 FILLER_0_34_82
*1582 FILLER_0_34_85
*1583 FILLER_0_34_97
*1584 FILLER_0_35_11
*1585 FILLER_0_35_127
*1586 FILLER_0_35_139
*1587 FILLER_0_35_159
*1588 FILLER_0_35_167
*1589 FILLER_0_35_176
*1590 FILLER_0_35_191
*1591 FILLER_0_35_203
*1592 FILLER_0_35_207
*1593 FILLER_0_35_211
*1594 FILLER_0_35_222
*1595 FILLER_0_35_232
*1596 FILLER_0_35_244
*1597 FILLER_0_35_256
*1598 FILLER_0_35_279
*1599 FILLER_0_35_281
*1600 FILLER_0_35_289
*1601 FILLER_0_35_296
*1602 FILLER_0_35_3
*1603 FILLER_0_35_30
*1604 FILLER_0_35_318
*1605 FILLER_0_35_330
*1606 FILLER_0_35_334
*1607 FILLER_0_35_50
*1608 FILLER_0_35_57
*1609 FILLER_0_35_83
*1610 FILLER_0_35_95
*1611 FILLER_0_36_102
*1612 FILLER_0_36_11
*1613 FILLER_0_36_124
*1614 FILLER_0_36_132
*1615 FILLER_0_36_137
*1616 FILLER_0_36_150
*1617 FILLER_0_36_154
*1618 FILLER_0_36_164
*1619 FILLER_0_36_185
*1620 FILLER_0_36_240
*1621 FILLER_0_36_253
*1622 FILLER_0_36_291
*1623 FILLER_0_36_3
*1624 FILLER_0_36_309
*1625 FILLER_0_36_45
*1626 FILLER_0_36_76
*1627 FILLER_0_36_94
*1628 FILLER_0_37_111
*1629 FILLER_0_37_113
*1630 FILLER_0_37_126
*1631 FILLER_0_37_15
*1632 FILLER_0_37_162
*1633 FILLER_0_37_185
*1634 FILLER_0_37_202
*1635 FILLER_0_37_225
*1636 FILLER_0_37_242
*1637 FILLER_0_37_25
*1638 FILLER_0_37_250
*1639 FILLER_0_37_295
*1640 FILLER_0_37_3
*1641 FILLER_0_37_38
*1642 FILLER_0_37_50
*1643 FILLER_0_37_63
*1644 FILLER_0_37_67
*1645 FILLER_0_37_86
*1646 FILLER_0_37_98
*1647 FILLER_0_38_10
*1648 FILLER_0_38_102
*1649 FILLER_0_38_113
*1650 FILLER_0_38_126
*1651 FILLER_0_38_138
*1652 FILLER_0_38_14
*1653 FILLER_0_38_141
*1654 FILLER_0_38_149
*1655 FILLER_0_38_161
*1656 FILLER_0_38_167
*1657 FILLER_0_38_169
*1658 FILLER_0_38_18
*1659 FILLER_0_38_181
*1660 FILLER_0_38_193
*1661 FILLER_0_38_197
*1662 FILLER_0_38_209
*1663 FILLER_0_38_22
*1664 FILLER_0_38_221
*1665 FILLER_0_38_225
*1666 FILLER_0_38_231
*1667 FILLER_0_38_238
*1668 FILLER_0_38_242
*1669 FILLER_0_38_246
*1670 FILLER_0_38_253
*1671 FILLER_0_38_262
*1672 FILLER_0_38_279
*1673 FILLER_0_38_287
*1674 FILLER_0_38_294
*1675 FILLER_0_38_298
*1676 FILLER_0_38_302
*1677 FILLER_0_38_32
*1678 FILLER_0_38_331
*1679 FILLER_0_38_38
*1680 FILLER_0_38_42
*1681 FILLER_0_38_46
*1682 FILLER_0_38_54
*1683 FILLER_0_38_57
*1684 FILLER_0_38_6
*1685 FILLER_0_38_62
*1686 FILLER_0_38_66
*1687 FILLER_0_38_70
*1688 FILLER_0_38_80
*1689 FILLER_0_38_88
*1690 FILLER_0_38_94
*1691 FILLER_0_38_98
*1692 FILLER_0_3_105
*1693 FILLER_0_3_111
*1694 FILLER_0_3_133
*1695 FILLER_0_3_15
*1696 FILLER_0_3_161
*1697 FILLER_0_3_167
*1698 FILLER_0_3_169
*1699 FILLER_0_3_181
*1700 FILLER_0_3_193
*1701 FILLER_0_3_205
*1702 FILLER_0_3_217
*1703 FILLER_0_3_223
*1704 FILLER_0_3_225
*1705 FILLER_0_3_27
*1706 FILLER_0_3_275
*1707 FILLER_0_3_279