*SPEF "ieee 1481-1999"
*DESIGN "tt_um_spiff42_exp_led_pwm"
*DATE "18:41:13 Friday April 19, 2024"
*VENDOR "The OpenROAD Project"
*PROGRAM "OpenROAD"
*VERSION "0889970d1790a2617e69f253221b8bd7626e51dc"
*DESIGN_FLOW "NAME_SCOPE LOCAL" "PIN_CAP NONE"
*DIVIDER /
*DELIMITER :
*BUS_DELIMITER []
*T_UNIT 1 NS
*C_UNIT 1 PF
*R_UNIT 1 OHM
*L_UNIT 1 HENRY

*NAME_MAP
*3 clk
*4 ena
*5 rst_n
*6 ui_in[0]
*7 ui_in[1]
*8 ui_in[2]
*9 ui_in[3]
*10 ui_in[4]
*11 ui_in[5]
*12 ui_in[6]
*13 ui_in[7]
*14 uio_in[0]
*15 uio_in[1]
*16 uio_in[2]
*17 uio_in[3]
*18 uio_in[4]
*19 uio_in[5]
*20 uio_in[6]
*21 uio_in[7]
*22 net24
*23 uio_oe[1]
*24 net25
*25 net26
*26 net27
*27 net28
*28 net29
*29 net30
*30 net31
*31 net32
*32 net33
*33 net34
*34 net35
*35 net36
*36 net37
*37 net38
*38 uo_out[0]
*39 uo_out[1]
*40 uo_out[2]
*41 uo_out[3]
*42 uo_out[4]
*43 uo_out[5]
*44 uo_out[6]
*45 uo_out[7]
*46 _0000_
*47 _0001_
*48 _0002_
*49 _0003_
*50 _0004_
*51 _0005_
*52 _0006_
*53 _0007_
*54 _0008_
*55 _0009_
*56 _0010_
*57 _0011_
*58 _0012_
*59 _0013_
*60 _0014_
*61 _0015_
*62 _0016_
*63 _0017_
*64 _0018_
*65 _0019_
*66 _0020_
*67 _0021_
*68 _0022_
*69 _0023_
*70 _0024_
*71 _0025_
*72 _0026_
*73 _0027_
*74 _0028_
*75 _0029_
*76 _0030_
*77 _0031_
*78 _0032_
*79 _0033_
*80 _0034_
*81 _0035_
*82 _0036_
*83 _0037_
*84 _0038_
*85 _0039_
*86 _0040_
*87 _0041_
*88 _0042_
*89 _0043_
*90 _0044_
*91 _0045_
*92 _0046_
*93 _0047_
*94 _0048_
*95 _0049_
*96 _0050_
*97 _0051_
*98 _0052_
*99 _0053_
*100 _0054_
*101 _0055_
*102 _0056_
*103 _0057_
*104 _0058_
*105 _0059_
*106 _0060_
*107 _0061_
*108 _0062_
*109 _0063_
*110 _0064_
*111 _0065_
*112 _0066_
*113 _0067_
*114 _0068_
*115 _0069_
*116 _0070_
*117 _0071_
*118 _0072_
*119 _0073_
*120 _0074_
*121 _0075_
*122 _0076_
*123 _0077_
*124 _0078_
*125 _0079_
*126 _0080_
*127 _0081_
*128 _0082_
*129 _0083_
*130 _0084_
*131 _0085_
*132 _0086_
*133 _0087_
*134 _0088_
*135 _0089_
*136 _0090_
*137 _0091_
*138 _0092_
*139 _0093_
*140 _0094_
*141 _0095_
*142 _0096_
*143 _0097_
*144 _0098_
*145 _0099_
*146 _0100_
*147 _0101_
*148 _0102_
*149 _0103_
*150 _0104_
*151 _0105_
*152 _0106_
*153 _0107_
*154 _0108_
*155 _0109_
*156 _0110_
*157 _0111_
*158 _0112_
*159 _0113_
*160 _0114_
*161 _0115_
*162 _0116_
*163 _0117_
*164 _0118_
*165 _0119_
*166 _0120_
*167 _0121_
*168 _0122_
*169 _0123_
*170 _0124_
*171 _0125_
*172 _0126_
*173 _0127_
*174 _0128_
*175 _0129_
*176 _0130_
*177 _0131_
*178 _0132_
*179 _0133_
*180 _0134_
*181 _0135_
*182 _0136_
*183 _0137_
*184 _0138_
*185 _0139_
*186 _0140_
*187 _0141_
*188 _0142_
*189 _0143_
*190 _0144_
*191 _0145_
*192 _0146_
*193 _0147_
*194 _0148_
*195 _0149_
*196 _0150_
*197 _0151_
*198 _0152_
*199 _0153_
*200 _0154_
*201 _0155_
*202 _0156_
*203 _0157_
*204 _0158_
*205 _0159_
*206 _0160_
*207 _0161_
*208 _0162_
*209 _0163_
*210 _0164_
*211 _0165_
*212 _0166_
*213 _0167_
*214 _0168_
*215 _0169_
*216 _0170_
*217 _0171_
*218 _0172_
*219 _0173_
*220 _0174_
*221 _0175_
*222 _0176_
*223 _0177_
*224 _0178_
*225 _0179_
*226 _0180_
*227 _0181_
*228 _0182_
*229 _0183_
*230 _0184_
*231 _0185_
*232 _0186_
*233 _0187_
*234 _0188_
*235 _0189_
*236 _0190_
*237 _0191_
*238 _0192_
*239 _0193_
*240 _0194_
*241 _0195_
*242 _0196_
*243 _0197_
*244 _0198_
*245 _0199_
*246 _0200_
*247 _0201_
*248 _0202_
*249 _0203_
*250 _0204_
*251 _0205_
*252 _0206_
*253 _0207_
*254 _0208_
*255 _0209_
*256 _0210_
*257 _0211_
*258 _0212_
*259 _0213_
*260 _0214_
*261 _0215_
*262 _0216_
*263 _0217_
*264 _0218_
*265 _0219_
*266 _0220_
*267 _0221_
*268 _0222_
*269 _0223_
*270 _0224_
*271 _0225_
*272 _0226_
*273 _0227_
*274 _0228_
*275 _0229_
*276 _0230_
*277 _0231_
*278 _0232_
*279 _0233_
*280 _0234_
*281 _0235_
*282 _0236_
*283 _0237_
*284 _0238_
*285 _0239_
*286 _0240_
*287 _0241_
*288 _0242_
*289 _0243_
*290 _0244_
*291 _0245_
*292 _0246_
*293 _0247_
*294 _0248_
*295 _0249_
*296 _0250_
*297 _0251_
*298 _0252_
*299 _0253_
*300 _0254_
*301 _0255_
*302 _0256_
*303 _0257_
*304 _0258_
*305 _0259_
*306 _0260_
*307 _0261_
*308 _0262_
*309 _0263_
*310 _0264_
*311 _0265_
*312 _0266_
*313 _0267_
*314 _0268_
*315 _0269_
*316 _0270_
*317 _0271_
*318 _0272_
*319 _0273_
*320 _0274_
*321 _0275_
*322 _0276_
*323 _0277_
*324 _0278_
*325 _0279_
*326 _0280_
*327 _0281_
*328 _0282_
*329 _0283_
*330 _0284_
*331 _0285_
*332 _0286_
*333 _0287_
*334 _0288_
*335 _0289_
*336 _0290_
*337 _0291_
*338 _0292_
*339 _0293_
*340 _0294_
*341 _0295_
*342 _0296_
*343 _0297_
*344 _0298_
*345 _0299_
*346 _0300_
*347 _0301_
*348 _0302_
*349 _0303_
*350 _0304_
*351 _0305_
*352 _0306_
*353 _0307_
*354 _0308_
*355 _0309_
*356 _0310_
*357 _0311_
*358 _0312_
*359 _0313_
*360 _0314_
*361 _0315_
*362 _0316_
*363 _0317_
*364 _0318_
*365 _0319_
*366 _0320_
*367 _0321_
*368 _0322_
*369 _0323_
*370 _0324_
*371 _0325_
*372 _0326_
*373 _0327_
*374 _0328_
*375 _0329_
*376 _0330_
*377 _0331_
*378 _0332_
*379 _0333_
*380 _0334_
*381 _0335_
*382 _0336_
*383 _0337_
*384 _0338_
*385 _0339_
*386 _0340_
*387 _0341_
*388 _0342_
*389 _0343_
*390 _0344_
*391 _0345_
*392 _0346_
*393 _0347_
*394 _0348_
*395 _0349_
*396 _0350_
*397 _0351_
*398 _0352_
*399 _0353_
*400 _0354_
*401 _0355_
*402 _0356_
*403 _0357_
*404 _0358_
*405 _0359_
*406 _0360_
*407 _0361_
*408 _0362_
*409 _0363_
*410 _0364_
*411 _0365_
*412 _0366_
*413 _0367_
*414 _0368_
*415 _0369_
*416 _0370_
*417 _0371_
*418 _0372_
*419 _0373_
*420 _0374_
*421 _0375_
*422 _0376_
*423 _0377_
*424 _0378_
*425 _0379_
*426 _0380_
*427 _0381_
*428 _0382_
*429 _0383_
*430 _0384_
*431 _0385_
*432 _0386_
*433 _0387_
*434 _0388_
*435 _0389_
*436 _0390_
*437 _0391_
*438 _0392_
*439 _0393_
*440 _0394_
*441 _0395_
*442 _0396_
*443 _0397_
*444 _0398_
*445 _0399_
*446 _0400_
*447 _0401_
*448 _0402_
*449 _0403_
*450 _0404_
*451 _0405_
*452 _0406_
*453 _0407_
*454 _0408_
*455 _0409_
*456 _0410_
*457 _0411_
*458 _0412_
*459 _0413_
*460 _0414_
*461 _0415_
*462 _0416_
*463 _0417_
*464 _0418_
*465 _0419_
*466 _0420_
*467 _0421_
*468 _0422_
*469 _0423_
*470 _0424_
*471 _0425_
*472 _0426_
*473 _0427_
*474 _0428_
*475 _0429_
*476 _0430_
*477 _0431_
*478 _0432_
*479 _0433_
*480 _0434_
*481 _0435_
*482 _0436_
*483 _0437_
*484 _0438_
*485 _0439_
*486 _0440_
*487 _0441_
*488 _0442_
*489 _0443_
*490 _0444_
*491 _0445_
*492 _0446_
*493 _0447_
*494 _0448_
*495 _0449_
*496 _0450_
*497 _0451_
*498 _0452_
*499 _0453_
*500 _0454_
*501 _0455_
*502 _0456_
*503 _0457_
*504 _0458_
*505 _0459_
*506 _0460_
*507 _0461_
*508 _0462_
*509 _0463_
*510 _0464_
*511 _0465_
*512 _0466_
*513 _0467_
*514 _0468_
*515 _0469_
*516 _0470_
*517 _0471_
*518 _0472_
*519 _0473_
*520 _0474_
*521 _0475_
*522 _0476_
*523 _0477_
*524 _0478_
*525 _0479_
*526 _0480_
*527 _0481_
*528 _0482_
*529 _0483_
*530 _0484_
*531 _0485_
*532 _0486_
*533 _0487_
*534 _0488_
*535 _0489_
*536 _0490_
*537 _0491_
*538 _0492_
*539 _0493_
*540 _0494_
*541 _0495_
*542 _0496_
*543 _0497_
*544 _0498_
*545 _0499_
*546 _0500_
*547 _0501_
*548 _0502_
*549 _0503_
*550 _0504_
*551 _0505_
*552 _0506_
*553 _0507_
*554 _0508_
*555 _0509_
*556 _0510_
*557 _0511_
*558 _0512_
*559 _0513_
*560 _0514_
*561 _0515_
*562 _0516_
*563 _0517_
*564 _0518_
*565 _0519_
*566 _0520_
*567 _0521_
*568 _0522_
*569 _0523_
*570 _0524_
*571 _0525_
*572 _0526_
*573 _0527_
*574 _0528_
*575 _0529_
*576 _0530_
*577 _0531_
*578 _0532_
*579 _0533_
*580 _0534_
*581 _0535_
*582 _0536_
*583 _0537_
*584 _0538_
*585 _0539_
*586 _0540_
*587 _0541_
*588 _0542_
*589 _0543_
*590 _0544_
*591 _0545_
*592 _0546_
*593 _0547_
*594 _0548_
*595 _0549_
*596 _0550_
*597 _0551_
*598 _0552_
*599 _0553_
*600 _0554_
*601 _0555_
*602 _0556_
*603 _0557_
*604 _0558_
*605 _0559_
*606 _0560_
*607 _0561_
*608 _0562_
*609 _0563_
*610 _0564_
*611 _0565_
*612 _0566_
*613 _0567_
*614 _0568_
*615 _0569_
*616 _0570_
*617 _0571_
*618 _0572_
*619 _0573_
*620 _0574_
*621 _0575_
*622 _0576_
*623 _0577_
*624 _0578_
*625 _0579_
*626 _0580_
*627 _0581_
*628 _0582_
*629 _0583_
*630 _0584_
*631 _0585_
*632 _0586_
*633 _0587_
*634 _0588_
*635 _0589_
*636 _0590_
*637 _0591_
*638 _0592_
*639 _0593_
*640 _0594_
*641 _0595_
*642 _0596_
*643 _0597_
*644 _0598_
*645 _0599_
*646 _0600_
*647 _0601_
*648 _0602_
*649 _0603_
*650 _0604_
*651 _0605_
*652 _0606_
*653 _0607_
*654 _0608_
*655 _0609_
*656 _0610_
*657 _0611_
*658 _0612_
*659 _0613_
*660 _0614_
*661 _0615_
*662 _0616_
*663 _0617_
*664 _0618_
*665 _0619_
*666 _0620_
*667 _0621_
*668 _0622_
*669 _0623_
*670 _0624_
*671 _0625_
*672 _0626_
*673 _0627_
*674 _0628_
*675 _0629_
*676 _0630_
*677 _0631_
*678 _0632_
*679 _0633_
*680 _0634_
*681 _0635_
*682 _0636_
*683 _0637_
*684 _0638_
*685 _0639_
*686 _0640_
*687 _0641_
*688 _0642_
*689 _0643_
*690 _0644_
*691 _0645_
*692 _0646_
*693 _0647_
*694 _0648_
*695 _0649_
*696 _0650_
*697 _0651_
*698 _0652_
*699 _0653_
*700 _0654_
*701 clknet_0_clk
*702 clknet_4_0_0_clk
*703 clknet_4_10_0_clk
*704 clknet_4_11_0_clk
*705 clknet_4_12_0_clk
*706 clknet_4_13_0_clk
*707 clknet_4_14_0_clk
*708 clknet_4_15_0_clk
*709 clknet_4_1_0_clk
*710 clknet_4_2_0_clk
*711 clknet_4_3_0_clk
*712 clknet_4_4_0_clk
*713 clknet_4_5_0_clk
*714 clknet_4_6_0_clk
*715 clknet_4_7_0_clk
*716 clknet_4_8_0_clk
*717 clknet_4_9_0_clk
*718 i2c\.addr\[0\]
*719 i2c\.addr\[1\]
*720 i2c\.addr\[2\]
*721 i2c\.addr\[3\]
*722 i2c\.addr\[4\]
*723 i2c\.addr\[5\]
*724 i2c\.addr\[6\]
*725 i2c\.addr\[7\]
*726 i2c\.bus_start
*727 i2c\.bus_stop
*728 i2c\.dbyte\[0\]
*729 i2c\.dbyte\[1\]
*730 i2c\.dbyte\[2\]
*731 i2c\.dbyte\[3\]
*732 i2c\.dbyte\[4\]
*733 i2c\.dbyte\[5\]
*734 i2c\.dbyte\[6\]
*735 i2c\.dbyte\[7\]
*736 i2c\.last_event\[0\]
*737 i2c\.last_event\[3\]
*738 i2c\.pull_sda
*739 i2c\.scl_d\[0\]
*740 i2c\.scl_d\[1\]
*741 i2c\.scl_d\[2\]
*742 i2c\.scl_d\[3\]
*743 i2c\.sda_d\[0\]
*744 i2c\.sda_d\[1\]
*745 i2c\.sda_d\[2\]
*746 i2c\.sda_d\[3\]
*747 i2c\.wen
*748 i2c_control
*749 net1
*750 net10
*751 net11
*752 net12
*753 net13
*754 net14
*755 net15
*756 net16
*757 net17
*758 net18
*759 net19
*760 net2
*761 net20
*762 net21
*763 net22
*764 net23
*765 net3
*766 net39
*767 net4
*768 net40
*769 net41
*770 net42
*771 net43
*772 net44
*773 net45
*774 net46
*775 net47
*776 net48
*777 net49
*778 net5
*779 net50
*780 net51
*781 net52
*782 net53
*783 net54
*784 net55
*785 net56
*786 net57
*787 net58
*788 net59
*789 net6
*790 net60
*791 net61
*792 net62
*793 net63
*794 net64
*795 net65
*796 net66
*797 net67
*798 net68
*799 net69
*800 net7
*801 net8
*802 net9
*803 pwmch_0\.ch
*804 pwmch_0\.ramp\[0\]
*805 pwmch_0\.ramp\[1\]
*806 pwmch_0\.ramp\[2\]
*807 pwmch_0\.ramp\[3\]
*808 pwmch_0\.ramp\[4\]
*809 pwmch_0\.ramp\[5\]
*810 pwmch_0\.ramp\[6\]
*811 pwmch_0\.ramp\[7\]
*812 pwmch_0\.value\[0\]
*813 pwmch_0\.value\[1\]
*814 pwmch_0\.value\[2\]
*815 pwmch_0\.value\[3\]
*816 pwmch_0\.value\[4\]
*817 pwmch_0\.value\[5\]
*818 pwmch_0\.value\[6\]
*819 pwmch_0\.value\[7\]
*820 pwmch_1\.ch
*821 pwmch_1\.value\[0\]
*822 pwmch_1\.value\[1\]
*823 pwmch_1\.value\[2\]
*824 pwmch_1\.value\[3\]
*825 pwmch_1\.value\[4\]
*826 pwmch_1\.value\[5\]
*827 pwmch_1\.value\[6\]
*828 pwmch_1\.value\[7\]
*829 pwmch_2\.ch
*830 pwmch_2\.value\[0\]
*831 pwmch_2\.value\[1\]
*832 pwmch_2\.value\[2\]
*833 pwmch_2\.value\[3\]
*834 pwmch_2\.value\[4\]
*835 pwmch_2\.value\[5\]
*836 pwmch_2\.value\[6\]
*837 pwmch_2\.value\[7\]
*838 pwmch_3\.ch
*839 pwmch_3\.value\[0\]
*840 pwmch_3\.value\[1\]
*841 pwmch_3\.value\[2\]
*842 pwmch_3\.value\[3\]
*843 pwmch_3\.value\[4\]
*844 pwmch_3\.value\[5\]
*845 pwmch_3\.value\[6\]
*846 pwmch_3\.value\[7\]
*847 pwmch_4\.ch
*848 pwmch_4\.value\[0\]
*849 pwmch_4\.value\[1\]
*850 pwmch_4\.value\[2\]
*851 pwmch_4\.value\[3\]
*852 pwmch_4\.value\[4\]
*853 pwmch_4\.value\[5\]
*854 pwmch_4\.value\[6\]
*855 pwmch_4\.value\[7\]
*856 pwmch_5\.ch
*857 pwmch_5\.value\[0\]
*858 pwmch_5\.value\[1\]
*859 pwmch_5\.value\[2\]
*860 pwmch_5\.value\[3\]
*861 pwmch_5\.value\[4\]
*862 pwmch_5\.value\[5\]
*863 pwmch_5\.value\[6\]
*864 pwmch_5\.value\[7\]
*865 pwmch_6\.ch
*866 pwmch_6\.value\[0\]
*867 pwmch_6\.value\[1\]
*868 pwmch_6\.value\[2\]
*869 pwmch_6\.value\[3\]
*870 pwmch_6\.value\[4\]
*871 pwmch_6\.value\[5\]
*872 pwmch_6\.value\[6\]
*873 pwmch_6\.value\[7\]
*874 pwmch_7\.ch
*875 pwmch_7\.value\[0\]
*876 pwmch_7\.value\[1\]
*877 pwmch_7\.value\[2\]
*878 pwmch_7\.value\[3\]
*879 pwmch_7\.value\[4\]
*880 pwmch_7\.value\[5\]
*881 pwmch_7\.value\[6\]
*882 pwmch_7\.value\[7\]
*883 ramp_gen\.ramp_low\[0\]
*884 ramp_gen\.ramp_low\[1\]
*885 ramp_gen\.ramp_low\[2\]
*886 ramp_gen\.ramp_low\[3\]
*887 ramp_gen\.ramp_low\[4\]
*888 ramp_gen\.ramp_low\[5\]
*889 ramp_gen\.ramp_low\[6\]
*890 ramp_gen\.ramp_low\[7\]
*891 ramp_gen\.ramp_low\[8\]
*892 ramp_gen\.ramp_low\[9\]
*893 FILLER_0_0_109
*894 FILLER_0_0_113
*895 FILLER_0_0_125
*896 FILLER_0_0_137
*897 FILLER_0_0_141
*898 FILLER_0_0_15
*899 FILLER_0_0_153
*900 FILLER_0_0_165
*901 FILLER_0_0_169
*902 FILLER_0_0_181
*903 FILLER_0_0_193
*904 FILLER_0_0_197
*905 FILLER_0_0_209
*906 FILLER_0_0_221
*907 FILLER_0_0_245
*908 FILLER_0_0_251
*909 FILLER_0_0_253
*910 FILLER_0_0_265
*911 FILLER_0_0_27
*912 FILLER_0_0_277
*913 FILLER_0_0_281
*914 FILLER_0_0_29
*915 FILLER_0_0_293
*916 FILLER_0_0_3
*917 FILLER_0_0_305
*918 FILLER_0_0_309
*919 FILLER_0_0_321
*920 FILLER_0_0_333
*921 FILLER_0_0_41
*922 FILLER_0_0_53
*923 FILLER_0_0_57
*924 FILLER_0_0_69
*925 FILLER_0_0_81
*926 FILLER_0_0_85
*927 FILLER_0_0_97
*928 FILLER_0_10_111
*929 FILLER_0_10_119
*930 FILLER_0_10_124
*931 FILLER_0_10_132
*932 FILLER_0_10_137
*933 FILLER_0_10_141
*934 FILLER_0_10_15
*935 FILLER_0_10_162
*936 FILLER_0_10_194
*937 FILLER_0_10_209
*938 FILLER_0_10_221
*939 FILLER_0_10_229
*940 FILLER_0_10_250
*941 FILLER_0_10_253
*942 FILLER_0_10_257
*943 FILLER_0_10_27
*944 FILLER_0_10_29
*945 FILLER_0_10_290
*946 FILLER_0_10_3
*947 FILLER_0_10_302
*948 FILLER_0_10_333
*949 FILLER_0_10_38
*950 FILLER_0_10_57
*951 FILLER_0_10_76
*952 FILLER_0_10_89
*953 FILLER_0_10_98
*954 FILLER_0_11_110
*955 FILLER_0_11_118
*956 FILLER_0_11_126
*957 FILLER_0_11_146
*958 FILLER_0_11_15
*959 FILLER_0_11_152
*960 FILLER_0_11_164
*961 FILLER_0_11_169
*962 FILLER_0_11_222
*963 FILLER_0_11_225
*964 FILLER_0_11_233
*965 FILLER_0_11_238
*966 FILLER_0_11_248
*967 FILLER_0_11_255
*968 FILLER_0_11_27
*969 FILLER_0_11_277
*970 FILLER_0_11_281
*971 FILLER_0_11_293
*972 FILLER_0_11_3
*973 FILLER_0_11_31
*974 FILLER_0_11_332
*975 FILLER_0_11_35
*976 FILLER_0_11_77
*977 FILLER_0_12_102
*978 FILLER_0_12_108
*979 FILLER_0_12_139
*980 FILLER_0_12_15
*981 FILLER_0_12_167
*982 FILLER_0_12_179
*983 FILLER_0_12_208
*984 FILLER_0_12_226
*985 FILLER_0_12_234
*986 FILLER_0_12_259
*987 FILLER_0_12_27
*988 FILLER_0_12_290
*989 FILLER_0_12_3
*990 FILLER_0_12_302
*991 FILLER_0_12_333
*992 FILLER_0_12_77
*993 FILLER_0_12_83
*994 FILLER_0_12_89
*995 FILLER_0_12_95
*996 FILLER_0_13_104
*997 FILLER_0_13_122
*998 FILLER_0_13_128
*999 FILLER_0_13_137
*1000 FILLER_0_13_15
*1001 FILLER_0_13_156
*1002 FILLER_0_13_166
*1003 FILLER_0_13_169
*1004 FILLER_0_13_181
*1005 FILLER_0_13_225
*1006 FILLER_0_13_237
*1007 FILLER_0_13_249
*1008 FILLER_0_13_27
*1009 FILLER_0_13_284
*1010 FILLER_0_13_296
*1011 FILLER_0_13_3
*1012 FILLER_0_13_308
*1013 FILLER_0_13_334
*1014 FILLER_0_13_35
*1015 FILLER_0_13_44
*1016 FILLER_0_13_57
*1017 FILLER_0_13_76
*1018 FILLER_0_13_82
*1019 FILLER_0_13_92
*1020 FILLER_0_14_122
*1021 FILLER_0_14_127
*1022 FILLER_0_14_15
*1023 FILLER_0_14_152
*1024 FILLER_0_14_164
*1025 FILLER_0_14_172
*1026 FILLER_0_14_185
*1027 FILLER_0_14_193
*1028 FILLER_0_14_227
*1029 FILLER_0_14_239
*1030 FILLER_0_14_246
*1031 FILLER_0_14_268
*1032 FILLER_0_14_27
*1033 FILLER_0_14_29
*1034 FILLER_0_14_3
*1035 FILLER_0_14_333
*1036 FILLER_0_14_41
*1037 FILLER_0_14_53
*1038 FILLER_0_14_61
*1039 FILLER_0_14_75
*1040 FILLER_0_14_83
*1041 FILLER_0_14_85
*1042 FILLER_0_14_97
*1043 FILLER_0_15_113
*1044 FILLER_0_15_126
*1045 FILLER_0_15_138
*1046 FILLER_0_15_15
*1047 FILLER_0_15_150
*1048 FILLER_0_15_172
*1049 FILLER_0_15_184
*1050 FILLER_0_15_196
*1051 FILLER_0_15_208
*1052 FILLER_0_15_223
*1053 FILLER_0_15_225
*1054 FILLER_0_15_236
*1055 FILLER_0_15_246
*1056 FILLER_0_15_253
*1057 FILLER_0_15_27
*1058 FILLER_0_15_281
*1059 FILLER_0_15_293
*1060 FILLER_0_15_299
*1061 FILLER_0_15_3
*1062 FILLER_0_15_39
*1063 FILLER_0_15_51
*1064 FILLER_0_15_55
*1065 FILLER_0_15_57
*1066 FILLER_0_15_77
*1067 FILLER_0_16_100
*1068 FILLER_0_16_112
*1069 FILLER_0_16_124
*1070 FILLER_0_16_136
*1071 FILLER_0_16_141
*1072 FILLER_0_16_15
*1073 FILLER_0_16_185
*1074 FILLER_0_16_194
*1075 FILLER_0_16_197
*1076 FILLER_0_16_201
*1077 FILLER_0_16_250
*1078 FILLER_0_16_259
*1079 FILLER_0_16_267
*1080 FILLER_0_16_27
*1081 FILLER_0_16_276
*1082 FILLER_0_16_288
*1083 FILLER_0_16_29
*1084 FILLER_0_16_296
*1085 FILLER_0_16_3
*1086 FILLER_0_16_307
*1087 FILLER_0_16_333
*1088 FILLER_0_16_41
*1089 FILLER_0_17_104
*1090 FILLER_0_17_113
*1091 FILLER_0_17_133
*1092 FILLER_0_17_145
*1093 FILLER_0_17_15
*1094 FILLER_0_17_178
*1095 FILLER_0_17_186
*1096 FILLER_0_17_206
*1097 FILLER_0_17_211
*1098 FILLER_0_17_223
*1099 FILLER_0_17_225
*1100 FILLER_0_17_229
*1101 FILLER_0_17_233
*1102 FILLER_0_17_241
*1103 FILLER_0_17_250
*1104 FILLER_0_17_256
*1105 FILLER_0_17_27
*1106 FILLER_0_17_274
*1107 FILLER_0_17_281
*1108 FILLER_0_17_293
*1109 FILLER_0_17_3
*1110 FILLER_0_17_301
*1111 FILLER_0_17_316
*1112 FILLER_0_17_328
*1113 FILLER_0_17_334
*1114 FILLER_0_17_44
*1115 FILLER_0_17_57
*1116 FILLER_0_17_61
*1117 FILLER_0_17_65
*1118 FILLER_0_17_71
*1119 FILLER_0_17_92
*1120 FILLER_0_18_100
*1121 FILLER_0_18_141
*1122 FILLER_0_18_149
*1123 FILLER_0_18_15
*1124 FILLER_0_18_169
*1125 FILLER_0_18_177
*1126 FILLER_0_18_229
*1127 FILLER_0_18_23
*1128 FILLER_0_18_241
*1129 FILLER_0_18_249
*1130 FILLER_0_18_253
*1131 FILLER_0_18_259
*1132 FILLER_0_18_264
*1133 FILLER_0_18_27
*1134 FILLER_0_18_276
*1135 FILLER_0_18_288
*1136 FILLER_0_18_29
*1137 FILLER_0_18_296
*1138 FILLER_0_18_3
*1139 FILLER_0_18_307
*1140 FILLER_0_18_329
*1141 FILLER_0_18_47
*1142 FILLER_0_18_59
*1143 FILLER_0_18_71
*1144 FILLER_0_18_80
*1145 FILLER_0_19_108
*1146 FILLER_0_19_138
*1147 FILLER_0_19_15
*1148 FILLER_0_19_150
*1149 FILLER_0_19_175
*1150 FILLER_0_19_206
*1151 FILLER_0_19_217
*1152 FILLER_0_19_223
*1153 FILLER_0_19_225
*1154 FILLER_0_19_237
*1155 FILLER_0_19_281
*1156 FILLER_0_19_293
*1157 FILLER_0_19_3
*1158 FILLER_0_19_57
*1159 FILLER_0_19_73
*1160 FILLER_0_19_84
*1161 FILLER_0_19_96
*1162 FILLER_0_1_110
*1163 FILLER_0_1_113
*1164 FILLER_0_1_125
*1165 FILLER_0_1_137
*1166 FILLER_0_1_149
*1167 FILLER_0_1_15
*1168 FILLER_0_1_161
*1169 FILLER_0_1_167
*1170 FILLER_0_1_169
*1171 FILLER_0_1_181
*1172 FILLER_0_1_193
*1173 FILLER_0_1_205
*1174 FILLER_0_1_217
*1175 FILLER_0_1_223
*1176 FILLER_0_1_253
*1177 FILLER_0_1_265
*1178 FILLER_0_1_27
*1179 FILLER_0_1_277
*1180 FILLER_0_1_281
*1181 FILLER_0_1_293
*1182 FILLER_0_1_3
*1183 FILLER_0_1_305
*1184 FILLER_0_1_317
*1185 FILLER_0_1_329
*1186 FILLER_0_1_39
*1187 FILLER_0_1_47
*1188 FILLER_0_1_51
*1189 FILLER_0_1_55
*1190 FILLER_0_1_57
*1191 FILLER_0_1_69
*1192 FILLER_0_1_98
*1193 FILLER_0_20_11
*1194 FILLER_0_20_112
*1195 FILLER_0_20_116
*1196 FILLER_0_20_134
*1197 FILLER_0_20_148
*1198 FILLER_0_20_160
*1199 FILLER_0_20_169
*1200 FILLER_0_20_17
*1201 FILLER_0_20_191
*1202 FILLER_0_20_195
*1203 FILLER_0_20_206
*1204 FILLER_0_20_218
*1205 FILLER_0_20_230
*1206 FILLER_0_20_234
*1207 FILLER_0_20_238
*1208 FILLER_0_20_25
*1209 FILLER_0_20_286
*1210 FILLER_0_20_29
*1211 FILLER_0_20_294
*1212 FILLER_0_20_3
*1213 FILLER_0_20_332
*1214 FILLER_0_20_43
*1215 FILLER_0_20_51
*1216 FILLER_0_20_85
*1217 FILLER_0_20_97
*1218 FILLER_0_21_107
*1219 FILLER_0_21_111
*1220 FILLER_0_21_113
*1221 FILLER_0_21_139
*1222 FILLER_0_21_147
*1223 FILLER_0_21_193
*1224 FILLER_0_21_205
*1225 FILLER_0_21_211
*1226 FILLER_0_21_219
*1227 FILLER_0_21_223
*1228 FILLER_0_21_251
*1229 FILLER_0_21_26
*1230 FILLER_0_21_277
*1231 FILLER_0_21_281
*1232 FILLER_0_21_293
*1233 FILLER_0_21_3
*1234 FILLER_0_21_301
*1235 FILLER_0_21_38
*1236 FILLER_0_21_53
*1237 FILLER_0_21_84
*1238 FILLER_0_21_9
*1239 FILLER_0_21_92
*1240 FILLER_0_22_110
*1241 FILLER_0_22_118
*1242 FILLER_0_22_138
*1243 FILLER_0_22_148
*1244 FILLER_0_22_173
*1245 FILLER_0_22_185
*1246 FILLER_0_22_193
*1247 FILLER_0_22_197
*1248 FILLER_0_22_208
*1249 FILLER_0_22_220
*1250 FILLER_0_22_25
*1251 FILLER_0_22_250
*1252 FILLER_0_22_262
*1253 FILLER_0_22_274
*1254 FILLER_0_22_286
*1255 FILLER_0_22_298
*1256 FILLER_0_22_3
*1257 FILLER_0_22_306
*1258 FILLER_0_22_317
*1259 FILLER_0_22_327
*1260 FILLER_0_22_54
*1261 FILLER_0_22_58
*1262 FILLER_0_22_68
*1263 FILLER_0_22_80
*1264 FILLER_0_22_85
*1265 FILLER_0_22_91
*1266 FILLER_0_22_99
*1267 FILLER_0_23_108
*1268 FILLER_0_23_11
*1269 FILLER_0_23_113
*1270 FILLER_0_23_132
*1271 FILLER_0_23_144
*1272 FILLER_0_23_16
*1273 FILLER_0_23_166
*1274 FILLER_0_23_177
*1275 FILLER_0_23_183
*1276 FILLER_0_23_213
*1277 FILLER_0_23_221
*1278 FILLER_0_23_245
*1279 FILLER_0_23_257
*1280 FILLER_0_23_277
*1281 FILLER_0_23_28
*1282 FILLER_0_23_291
*1283 FILLER_0_23_299
*1284 FILLER_0_23_3
*1285 FILLER_0_23_331
*1286 FILLER_0_23_40
*1287 FILLER_0_23_52
*1288 FILLER_0_23_57
*1289 FILLER_0_23_69
*1290 FILLER_0_23_81
*1291 FILLER_0_23_89
*1292 FILLER_0_24_127
*1293 FILLER_0_24_139
*1294 FILLER_0_24_141
*1295 FILLER_0_24_149
*1296 FILLER_0_24_176
*1297 FILLER_0_24_184
*1298 FILLER_0_24_222
*1299 FILLER_0_24_232
*1300 FILLER_0_24_243
*1301 FILLER_0_24_251
*1302 FILLER_0_24_253
*1303 FILLER_0_24_266
*1304 FILLER_0_24_270
*1305 FILLER_0_24_288
*1306 FILLER_0_24_3
*1307 FILLER_0_24_300
*1308 FILLER_0_24_309
*1309 FILLER_0_24_319
*1310 FILLER_0_24_333
*1311 FILLER_0_24_38
*1312 FILLER_0_24_50
*1313 FILLER_0_24_68
*1314 FILLER_0_24_80
*1315 FILLER_0_24_93
*1316 FILLER_0_25_122
*1317 FILLER_0_25_134
*1318 FILLER_0_25_147
*1319 FILLER_0_25_159
*1320 FILLER_0_25_167
*1321 FILLER_0_25_169
*1322 FILLER_0_25_181
*1323 FILLER_0_25_196
*1324 FILLER_0_25_215
*1325 FILLER_0_25_223
*1326 FILLER_0_25_225
*1327 FILLER_0_25_229
*1328 FILLER_0_25_242
*1329 FILLER_0_25_250
*1330 FILLER_0_25_279
*1331 FILLER_0_25_3
*1332 FILLER_0_25_301
*1333 FILLER_0_25_307
*1334 FILLER_0_25_331
*1335 FILLER_0_25_35
*1336 FILLER_0_25_82
*1337 FILLER_0_25_86
*1338 FILLER_0_26_119
*1339 FILLER_0_26_135
*1340 FILLER_0_26_139
*1341 FILLER_0_26_141
*1342 FILLER_0_26_149
*1343 FILLER_0_26_176
*1344 FILLER_0_26_182
*1345 FILLER_0_26_191
*1346 FILLER_0_26_195
*1347 FILLER_0_26_197
*1348 FILLER_0_26_212
*1349 FILLER_0_26_224
*1350 FILLER_0_26_248
*1351 FILLER_0_26_258
*1352 FILLER_0_26_265
*1353 FILLER_0_26_271
*1354 FILLER_0_26_29
*1355 FILLER_0_26_295
*1356 FILLER_0_26_3
*1357 FILLER_0_26_307
*1358 FILLER_0_26_309
*1359 FILLER_0_26_325
*1360 FILLER_0_26_333
*1361 FILLER_0_26_39
*1362 FILLER_0_26_77
*1363 FILLER_0_26_83
*1364 FILLER_0_26_93
*1365 FILLER_0_26_97
*1366 FILLER_0_27_108
*1367 FILLER_0_27_113
*1368 FILLER_0_27_138
*1369 FILLER_0_27_15
*1370 FILLER_0_27_150
*1371 FILLER_0_27_167
*1372 FILLER_0_27_178
*1373 FILLER_0_27_190
*1374 FILLER_0_27_215
*1375 FILLER_0_27_219
*1376 FILLER_0_27_223
*1377 FILLER_0_27_236
*1378 FILLER_0_27_27
*1379 FILLER_0_27_278
*1380 FILLER_0_27_281
*1381 FILLER_0_27_299
*1382 FILLER_0_27_3
*1383 FILLER_0_27_311
*1384 FILLER_0_27_329
*1385 FILLER_0_27_39
*1386 FILLER_0_27_43
*1387 FILLER_0_27_47
*1388 FILLER_0_27_55
*1389 FILLER_0_27_66
*1390 FILLER_0_27_74
*1391 FILLER_0_27_84
*1392 FILLER_0_27_90
*1393 FILLER_0_28_105
*1394 FILLER_0_28_117
*1395 FILLER_0_28_137
*1396 FILLER_0_28_15
*1397 FILLER_0_28_150
*1398 FILLER_0_28_158
*1399 FILLER_0_28_188
*1400 FILLER_0_28_197
*1401 FILLER_0_28_201
*1402 FILLER_0_28_205
*1403 FILLER_0_28_213
*1404 FILLER_0_28_233
*1405 FILLER_0_28_251
*1406 FILLER_0_28_253
*1407 FILLER_0_28_259
*1408 FILLER_0_28_276
*1409 FILLER_0_28_280
*1410 FILLER_0_28_3
*1411 FILLER_0_28_307
*1412 FILLER_0_28_309
*1413 FILLER_0_28_334
*1414 FILLER_0_28_38
*1415 FILLER_0_28_50
*1416 FILLER_0_28_78
*1417 FILLER_0_28_85
*1418 FILLER_0_28_93
*1419 FILLER_0_29_105
*1420 FILLER_0_29_11
*1421 FILLER_0_29_111
*1422 FILLER_0_29_113
*1423 FILLER_0_29_125
*1424 FILLER_0_29_142
*1425 FILLER_0_29_146
*1426 FILLER_0_29_161
*1427 FILLER_0_29_167
*1428 FILLER_0_29_177
*1429 FILLER_0_29_185
*1430 FILLER_0_29_194
*1431 FILLER_0_29_206
*1432 FILLER_0_29_264
*1433 FILLER_0_29_278
*1434 FILLER_0_29_281
*1435 FILLER_0_29_294
*1436 FILLER_0_29_3
*1437 FILLER_0_29_45
*1438 FILLER_0_29_84
*1439 FILLER_0_2_109
*1440 FILLER_0_2_121
*1441 FILLER_0_2_133
*1442 FILLER_0_2_139
*1443 FILLER_0_2_141
*1444 FILLER_0_2_15
*1445 FILLER_0_2_153
*1446 FILLER_0_2_165
*1447 FILLER_0_2_177
*1448 FILLER_0_2_189
*1449 FILLER_0_2_195
*1450 FILLER_0_2_197
*1451 FILLER_0_2_209
*1452 FILLER_0_2_213
*1453 FILLER_0_2_242
*1454 FILLER_0_2_250
*1455 FILLER_0_2_253
*1456 FILLER_0_2_265
*1457 FILLER_0_2_27
*1458 FILLER_0_2_277
*1459 FILLER_0_2_289
*1460 FILLER_0_2_29
*1461 FILLER_0_2_3
*1462 FILLER_0_2_301
*1463 FILLER_0_2_307
*1464 FILLER_0_2_309
*1465 FILLER_0_2_321
*1466 FILLER_0_2_333
*1467 FILLER_0_2_41
*1468 FILLER_0_2_97
*1469 FILLER_0_30_114
*1470 FILLER_0_30_132
*1471 FILLER_0_30_15
*1472 FILLER_0_30_154
*1473 FILLER_0_30_166
*1474 FILLER_0_30_192
*1475 FILLER_0_30_197
*1476 FILLER_0_30_209
*1477 FILLER_0_30_217
*1478 FILLER_0_30_23
*1479 FILLER_0_30_232
*1480 FILLER_0_30_251
*1481 FILLER_0_30_253
*1482 FILLER_0_30_27
*1483 FILLER_0_30_281
*1484 FILLER_0_30_3
*1485 FILLER_0_30_309
*1486 FILLER_0_30_333
*1487 FILLER_0_30_38
*1488 FILLER_0_30_46
*1489 FILLER_0_30_65
*1490 FILLER_0_30_82
*1491 FILLER_0_30_85
*1492 FILLER_0_31_122
*1493 FILLER_0_31_126
*1494 FILLER_0_31_158
*1495 FILLER_0_31_166
*1496 FILLER_0_31_194
*1497 FILLER_0_31_206
*1498 FILLER_0_31_214
*1499 FILLER_0_31_222
*1500 FILLER_0_31_258
*1501 FILLER_0_31_266
*1502 FILLER_0_31_296
*1503 FILLER_0_31_3
*1504 FILLER_0_31_304
*1505 FILLER_0_31_316
*1506 FILLER_0_31_322
*1507 FILLER_0_31_326
*1508 FILLER_0_31_334
*1509 FILLER_0_31_46
*1510 FILLER_0_31_80
*1511 FILLER_0_31_88
*1512 FILLER_0_32_110
*1513 FILLER_0_32_118
*1514 FILLER_0_32_128
*1515 FILLER_0_32_148
*1516 FILLER_0_32_15
*1517 FILLER_0_32_160
*1518 FILLER_0_32_176
*1519 FILLER_0_32_189
*1520 FILLER_0_32_195
*1521 FILLER_0_32_197
*1522 FILLER_0_32_209
*1523 FILLER_0_32_21
*1524 FILLER_0_32_221
*1525 FILLER_0_32_250
*1526 FILLER_0_32_253
*1527 FILLER_0_32_261
*1528 FILLER_0_32_27
*1529 FILLER_0_32_284
*1530 FILLER_0_32_296
*1531 FILLER_0_32_3
*1532 FILLER_0_32_321
*1533 FILLER_0_32_333
*1534 FILLER_0_32_38
*1535 FILLER_0_32_50
*1536 FILLER_0_32_68
*1537 FILLER_0_32_80
*1538 FILLER_0_32_85
*1539 FILLER_0_33_108
*1540 FILLER_0_33_113
*1541 FILLER_0_33_125
*1542 FILLER_0_33_137
*1543 FILLER_0_33_152
*1544 FILLER_0_33_164
*1545 FILLER_0_33_169
*1546 FILLER_0_33_18
*1547 FILLER_0_33_197
*1548 FILLER_0_33_217
*1549 FILLER_0_33_225
*1550 FILLER_0_33_247
*1551 FILLER_0_33_259
*1552 FILLER_0_33_289
*1553 FILLER_0_33_297
*1554 FILLER_0_33_3
*1555 FILLER_0_33_331
*1556 FILLER_0_33_44
*1557 FILLER_0_33_52
*1558 FILLER_0_33_57
*1559 FILLER_0_33_62
*1560 FILLER_0_33_72
*1561 FILLER_0_33_84
*1562 FILLER_0_33_88
*1563 FILLER_0_34_100
*1564 FILLER_0_34_122
*1565 FILLER_0_34_130
*1566 FILLER_0_34_141
*1567 FILLER_0_34_158
*1568 FILLER_0_34_170
*1569 FILLER_0_34_195
*1570 FILLER_0_34_197
*1571 FILLER_0_34_201
*1572 FILLER_0_34_218
*1573 FILLER_0_34_239
*1574 FILLER_0_34_251
*1575 FILLER_0_34_253
*1576 FILLER_0_34_27
*1577 FILLER_0_34_286
*1578 FILLER_0_34_29
*1579 FILLER_0_34_292
*1580 FILLER_0_34_3
*1581 FILLER_0_34_304
*1582 FILLER_0_34_330
*1583 FILLER_0_34_334
*1584 FILLER_0_34_37
*1585 FILLER_0_34_71
*1586 FILLER_0_34_83
*1587 FILLER_0_34_85
*1588 FILLER_0_35_107
*1589 FILLER_0_35_111
*1590 FILLER_0_35_113
*1591 FILLER_0_35_125
*1592 FILLER_0_35_146
*1593 FILLER_0_35_15
*1594 FILLER_0_35_158
*1595 FILLER_0_35_166
*1596 FILLER_0_35_169
*1597 FILLER_0_35_188
*1598 FILLER_0_35_200
*1599 FILLER_0_35_212
*1600 FILLER_0_35_222
*1601 FILLER_0_35_244
*1602 FILLER_0_35_256
*1603 FILLER_0_35_268
*1604 FILLER_0_35_281
*1605 FILLER_0_35_285
*1606 FILLER_0_35_294
*1607 FILLER_0_35_3
*1608 FILLER_0_35_321
*1609 FILLER_0_35_333
*1610 FILLER_0_35_38
*1611 FILLER_0_35_50
*1612 FILLER_0_35_66
*1613 FILLER_0_35_77
*1614 FILLER_0_35_97
*1615 FILLER_0_36_109
*1616 FILLER_0_36_11
*1617 FILLER_0_36_129
*1618 FILLER_0_36_139
*1619 FILLER_0_36_150
*1620 FILLER_0_36_157
*1621 FILLER_0_36_193
*1622 FILLER_0_36_197
*1623 FILLER_0_36_207
*1624 FILLER_0_36_224
*1625 FILLER_0_36_237
*1626 FILLER_0_36_251
*1627 FILLER_0_36_253
*1628 FILLER_0_36_280
*1629 FILLER_0_36_296
*1630 FILLER_0_36_3
*1631 FILLER_0_36_38
*1632 FILLER_0_36_42
*1633 FILLER_0_36_55
*1634 FILLER_0_36_67
*1635 FILLER_0_36_97
*1636 FILLER_0_37_110
*1637 FILLER_0_37_113
*1638 FILLER_0_37_15
*1639 FILLER_0_37_164
*1640 FILLER_0_37_185
*1641 FILLER_0_37_209
*1642 FILLER_0_37_215
*1643 FILLER_0_37_223
*1644 FILLER_0_37_3
*1645 FILLER_0_37_303
*1646 FILLER_0_37_309
*1647 FILLER_0_37_33
*1648 FILLER_0_37_39
*1649 FILLER_0_37_63
*1650 FILLER_0_38_10
*1651 FILLER_0_38_102
*1652 FILLER_0_38_113
*1653 FILLER_0_38_127
*1654 FILLER_0_38_139
*1655 FILLER_0_38_14
*1656 FILLER_0_38_141
*1657 FILLER_0_38_153
*1658 FILLER_0_38_161
*1659 FILLER_0_38_167
*1660 FILLER_0_38_169
*1661 FILLER_0_38_175
*1662 FILLER_0_38_183
*1663 FILLER_0_38_189
*1664 FILLER_0_38_195
*1665 FILLER_0_38_200
*1666 FILLER_0_38_212
*1667 FILLER_0_38_225
*1668 FILLER_0_38_233
*1669 FILLER_0_38_238
*1670 FILLER_0_38_242
*1671 FILLER_0_38_246
*1672 FILLER_0_38_253
*1673 FILLER_0_38_26
*1674 FILLER_0_38_262
*1675 FILLER_0_38_278
*1676 FILLER_0_38_290
*1677 FILLER_0_38_294
*1678 FILLER_0_38_298
*1679 FILLER_0_38_302
*1680 FILLER_0_38_32
*1681 FILLER_0_38_333
*1682 FILLER_0_38_38
*1683 FILLER_0_38_42
*1684 FILLER_0_38_46
*1685 FILLER_0_38_54
*1686 FILLER_0_38_57
*1687 FILLER_0_38_6
*1688 FILLER_0_38_62
*1689 FILLER_0_38_66
*1690 FILLER_0_38_70
*1691 FILLER_0_38_74
*1692 FILLER_0_38_78
*1693 FILLER_0_38_88
*1694 FILLER_0_38_94
*1695 FILLER_0_38_98
*1696 FILLER_0_3_107
*1697 FILLER_0_3_111
*1698 FILLER_0_3_113
*1699 FILLER_0_3_125
*1700 FILLER_0_3_137
*1701 FILLER_0_3_149
*1702 FILLER_0_3_15
*1703 FILLER_0_3_161
*1704 FILLER_0_3_167
*1705 FILLER_0_3_169
*1706 FILLER_0_3_181
*1707 FILLER_0_3_193
*1708 FILLER_0_3_203
*1709 FILLER_0_3_215
*1710 FILLER_0_3_223
*1711 FILLER_0_3_231