*SPEF "ieee 1481-1999"
*DESIGN "tt_um_spiff42_exp_led_pwm"
*DATE "17:36:06 Friday April 12, 2024"
*VENDOR "The OpenROAD Project"
*PROGRAM "OpenROAD"
*VERSION "0889970d1790a2617e69f253221b8bd7626e51dc"
*DESIGN_FLOW "NAME_SCOPE LOCAL" "PIN_CAP NONE"
*DIVIDER /
*DELIMITER :
*BUS_DELIMITER []
*T_UNIT 1 NS
*C_UNIT 1 PF
*R_UNIT 1 OHM
*L_UNIT 1 HENRY

*NAME_MAP
*3 clk
*4 ena
*5 rst_n
*6 ui_in[0]
*7 ui_in[1]
*8 ui_in[2]
*9 ui_in[3]
*10 ui_in[4]
*11 ui_in[5]
*12 ui_in[6]
*13 ui_in[7]
*14 uio_in[0]
*15 uio_in[1]
*16 uio_in[2]
*17 uio_in[3]
*18 uio_in[4]
*19 uio_in[5]
*20 uio_in[6]
*21 uio_in[7]
*22 net12
*23 net13
*24 net14
*25 net15
*26 net16
*27 net17
*28 net18
*29 net19
*30 net20
*31 net21
*32 net22
*33 net23
*34 net24
*35 net25
*36 net26
*37 net27
*38 uo_out[0]
*39 net28
*40 net29
*41 net30
*42 net31
*43 net32
*44 net33
*45 net34
*46 _000_
*47 _001_
*48 _002_
*49 _003_
*50 _004_
*51 _005_
*52 _006_
*53 _007_
*54 _008_
*55 _009_
*56 _010_
*57 _011_
*58 _012_
*59 _013_
*60 _014_
*61 _015_
*62 _016_
*63 _017_
*64 _018_
*65 _019_
*66 _020_
*67 _021_
*68 _022_
*69 _023_
*70 _024_
*71 _025_
*72 _026_
*73 _027_
*74 _028_
*75 _029_
*76 _030_
*77 _031_
*78 _032_
*79 _033_
*80 _034_
*81 _035_
*82 _036_
*83 _037_
*84 _038_
*85 _039_
*86 _040_
*87 _041_
*88 _042_
*89 _043_
*90 _044_
*91 _045_
*92 _046_
*93 _047_
*94 _048_
*95 _049_
*96 _050_
*97 _051_
*98 _052_
*99 _053_
*100 _054_
*101 _055_
*102 _056_
*103 _057_
*104 _058_
*105 _059_
*106 _060_
*107 _061_
*108 _062_
*109 _063_
*110 _064_
*111 _065_
*112 _066_
*113 _067_
*114 _068_
*115 _069_
*116 _070_
*117 _071_
*118 _072_
*119 _073_
*120 _074_
*121 _075_
*122 _076_
*123 _077_
*124 _078_
*125 _079_
*126 _080_
*127 _081_
*128 _082_
*129 _083_
*130 _084_
*131 _085_
*132 _086_
*133 _087_
*134 _088_
*135 _089_
*136 _090_
*137 _091_
*138 _092_
*139 _093_
*140 _094_
*141 _095_
*142 _096_
*143 _097_
*144 _098_
*145 _099_
*146 _100_
*147 _101_
*148 _102_
*149 _103_
*150 _104_
*151 _105_
*152 _106_
*153 _107_
*154 _108_
*155 _109_
*156 _110_
*157 _111_
*158 _112_
*159 _113_
*160 _114_
*161 _115_
*162 _116_
*163 _117_
*164 _118_
*165 _119_
*166 _120_
*167 _121_
*168 _122_
*169 clknet_0_clk
*170 clknet_1_0__leaf_clk
*171 clknet_1_1__leaf_clk
*172 dut\.ramp\[0\]
*173 dut\.ramp\[1\]
*174 dut\.ramp\[2\]
*175 dut\.ramp\[3\]
*176 dut\.ramp\[4\]
*177 dut\.ramp\[5\]
*178 dut\.ramp\[6\]
*179 dut\.ramp\[7\]
*180 dut\.ramp_low\[0\]
*181 dut\.ramp_low\[1\]
*182 dut\.ramp_low\[2\]
*183 dut\.ramp_low\[3\]
*184 dut\.ramp_low\[4\]
*185 dut\.ramp_low\[5\]
*186 dut\.ramp_low\[6\]
*187 dut\.ramp_low\[7\]
*188 dut\.ramp_low\[8\]
*189 dut\.ramp_low\[9\]
*190 net1
*191 net10
*192 net11
*193 net2
*194 net3
*195 net35
*196 net36
*197 net37
*198 net38
*199 net39
*200 net4
*201 net5
*202 net6
*203 net7
*204 net8
*205 net9
*206 pwmch\.ch
*207 FILLER_0_0_109
*208 FILLER_0_0_113
*209 FILLER_0_0_125
*210 FILLER_0_0_137
*211 FILLER_0_0_141
*212 FILLER_0_0_15
*213 FILLER_0_0_153
*214 FILLER_0_0_165
*215 FILLER_0_0_169
*216 FILLER_0_0_181
*217 FILLER_0_0_193
*218 FILLER_0_0_197
*219 FILLER_0_0_209
*220 FILLER_0_0_221
*221 FILLER_0_0_225
*222 FILLER_0_0_237
*223 FILLER_0_0_249
*224 FILLER_0_0_253
*225 FILLER_0_0_265
*226 FILLER_0_0_27
*227 FILLER_0_0_277
*228 FILLER_0_0_281
*229 FILLER_0_0_29
*230 FILLER_0_0_293
*231 FILLER_0_0_3
*232 FILLER_0_0_305
*233 FILLER_0_0_309
*234 FILLER_0_0_321
*235 FILLER_0_0_333
*236 FILLER_0_0_41
*237 FILLER_0_0_53
*238 FILLER_0_0_57
*239 FILLER_0_0_69
*240 FILLER_0_0_81
*241 FILLER_0_0_85
*242 FILLER_0_0_97
*243 FILLER_0_10_109
*244 FILLER_0_10_121
*245 FILLER_0_10_133
*246 FILLER_0_10_139
*247 FILLER_0_10_141
*248 FILLER_0_10_15
*249 FILLER_0_10_153
*250 FILLER_0_10_165
*251 FILLER_0_10_177
*252 FILLER_0_10_189
*253 FILLER_0_10_195
*254 FILLER_0_10_197
*255 FILLER_0_10_209
*256 FILLER_0_10_221
*257 FILLER_0_10_233
*258 FILLER_0_10_245
*259 FILLER_0_10_251
*260 FILLER_0_10_253
*261 FILLER_0_10_265
*262 FILLER_0_10_27
*263 FILLER_0_10_277
*264 FILLER_0_10_289
*265 FILLER_0_10_29
*266 FILLER_0_10_3
*267 FILLER_0_10_301
*268 FILLER_0_10_307
*269 FILLER_0_10_309
*270 FILLER_0_10_321
*271 FILLER_0_10_333
*272 FILLER_0_10_41
*273 FILLER_0_10_53
*274 FILLER_0_10_65
*275 FILLER_0_10_77
*276 FILLER_0_10_83
*277 FILLER_0_10_85
*278 FILLER_0_10_97
*279 FILLER_0_11_105
*280 FILLER_0_11_111
*281 FILLER_0_11_113
*282 FILLER_0_11_125
*283 FILLER_0_11_137
*284 FILLER_0_11_149
*285 FILLER_0_11_15
*286 FILLER_0_11_161
*287 FILLER_0_11_167
*288 FILLER_0_11_169
*289 FILLER_0_11_181
*290 FILLER_0_11_193
*291 FILLER_0_11_205
*292 FILLER_0_11_217
*293 FILLER_0_11_223
*294 FILLER_0_11_225
*295 FILLER_0_11_237
*296 FILLER_0_11_249
*297 FILLER_0_11_261
*298 FILLER_0_11_27
*299 FILLER_0_11_273
*300 FILLER_0_11_279
*301 FILLER_0_11_281
*302 FILLER_0_11_293
*303 FILLER_0_11_3
*304 FILLER_0_11_305
*305 FILLER_0_11_317
*306 FILLER_0_11_329
*307 FILLER_0_11_39
*308 FILLER_0_11_51
*309 FILLER_0_11_55
*310 FILLER_0_11_57
*311 FILLER_0_11_69
*312 FILLER_0_11_81
*313 FILLER_0_11_93
*314 FILLER_0_12_109
*315 FILLER_0_12_121
*316 FILLER_0_12_133
*317 FILLER_0_12_139
*318 FILLER_0_12_141
*319 FILLER_0_12_15
*320 FILLER_0_12_153
*321 FILLER_0_12_165
*322 FILLER_0_12_177
*323 FILLER_0_12_189
*324 FILLER_0_12_195
*325 FILLER_0_12_197
*326 FILLER_0_12_209
*327 FILLER_0_12_221
*328 FILLER_0_12_233
*329 FILLER_0_12_245
*330 FILLER_0_12_251
*331 FILLER_0_12_253
*332 FILLER_0_12_265
*333 FILLER_0_12_27
*334 FILLER_0_12_277
*335 FILLER_0_12_289
*336 FILLER_0_12_29
*337 FILLER_0_12_3
*338 FILLER_0_12_301
*339 FILLER_0_12_307
*340 FILLER_0_12_309
*341 FILLER_0_12_321
*342 FILLER_0_12_333
*343 FILLER_0_12_41
*344 FILLER_0_12_53
*345 FILLER_0_12_65
*346 FILLER_0_12_77
*347 FILLER_0_12_83
*348 FILLER_0_12_85
*349 FILLER_0_12_97
*350 FILLER_0_13_105
*351 FILLER_0_13_111
*352 FILLER_0_13_113
*353 FILLER_0_13_125
*354 FILLER_0_13_137
*355 FILLER_0_13_149
*356 FILLER_0_13_15
*357 FILLER_0_13_161
*358 FILLER_0_13_167
*359 FILLER_0_13_169
*360 FILLER_0_13_181
*361 FILLER_0_13_193
*362 FILLER_0_13_205
*363 FILLER_0_13_217
*364 FILLER_0_13_223
*365 FILLER_0_13_225
*366 FILLER_0_13_237
*367 FILLER_0_13_249
*368 FILLER_0_13_261
*369 FILLER_0_13_27
*370 FILLER_0_13_273
*371 FILLER_0_13_279
*372 FILLER_0_13_281
*373 FILLER_0_13_293
*374 FILLER_0_13_3
*375 FILLER_0_13_305
*376 FILLER_0_13_317
*377 FILLER_0_13_329
*378 FILLER_0_13_39
*379 FILLER_0_13_51
*380 FILLER_0_13_55
*381 FILLER_0_13_57
*382 FILLER_0_13_69
*383 FILLER_0_13_81
*384 FILLER_0_13_93
*385 FILLER_0_14_109
*386 FILLER_0_14_121
*387 FILLER_0_14_133
*388 FILLER_0_14_139
*389 FILLER_0_14_141
*390 FILLER_0_14_15
*391 FILLER_0_14_153
*392 FILLER_0_14_165
*393 FILLER_0_14_177
*394 FILLER_0_14_189
*395 FILLER_0_14_195
*396 FILLER_0_14_197
*397 FILLER_0_14_209
*398 FILLER_0_14_221
*399 FILLER_0_14_233
*400 FILLER_0_14_245
*401 FILLER_0_14_251
*402 FILLER_0_14_253
*403 FILLER_0_14_265
*404 FILLER_0_14_27
*405 FILLER_0_14_277
*406 FILLER_0_14_289
*407 FILLER_0_14_29
*408 FILLER_0_14_3
*409 FILLER_0_14_301
*410 FILLER_0_14_307
*411 FILLER_0_14_309
*412 FILLER_0_14_321
*413 FILLER_0_14_333
*414 FILLER_0_14_41
*415 FILLER_0_14_53
*416 FILLER_0_14_65
*417 FILLER_0_14_77
*418 FILLER_0_14_83
*419 FILLER_0_14_85
*420 FILLER_0_14_97
*421 FILLER_0_15_105
*422 FILLER_0_15_111
*423 FILLER_0_15_113
*424 FILLER_0_15_125
*425 FILLER_0_15_137
*426 FILLER_0_15_149
*427 FILLER_0_15_15
*428 FILLER_0_15_161
*429 FILLER_0_15_167
*430 FILLER_0_15_169
*431 FILLER_0_15_181
*432 FILLER_0_15_193
*433 FILLER_0_15_205
*434 FILLER_0_15_217
*435 FILLER_0_15_223
*436 FILLER_0_15_225
*437 FILLER_0_15_237
*438 FILLER_0_15_249
*439 FILLER_0_15_261
*440 FILLER_0_15_27
*441 FILLER_0_15_273
*442 FILLER_0_15_279
*443 FILLER_0_15_281
*444 FILLER_0_15_293
*445 FILLER_0_15_3
*446 FILLER_0_15_305
*447 FILLER_0_15_317
*448 FILLER_0_15_329
*449 FILLER_0_15_39
*450 FILLER_0_15_51
*451 FILLER_0_15_55
*452 FILLER_0_15_57
*453 FILLER_0_15_69
*454 FILLER_0_15_81
*455 FILLER_0_15_93
*456 FILLER_0_16_109
*457 FILLER_0_16_121
*458 FILLER_0_16_133
*459 FILLER_0_16_139
*460 FILLER_0_16_141
*461 FILLER_0_16_15
*462 FILLER_0_16_153
*463 FILLER_0_16_165
*464 FILLER_0_16_177
*465 FILLER_0_16_189
*466 FILLER_0_16_195
*467 FILLER_0_16_197
*468 FILLER_0_16_209
*469 FILLER_0_16_221
*470 FILLER_0_16_233
*471 FILLER_0_16_245
*472 FILLER_0_16_251
*473 FILLER_0_16_253
*474 FILLER_0_16_265
*475 FILLER_0_16_27
*476 FILLER_0_16_277
*477 FILLER_0_16_289
*478 FILLER_0_16_29
*479 FILLER_0_16_3
*480 FILLER_0_16_301
*481 FILLER_0_16_307
*482 FILLER_0_16_309
*483 FILLER_0_16_321
*484 FILLER_0_16_333
*485 FILLER_0_16_41
*486 FILLER_0_16_53
*487 FILLER_0_16_65
*488 FILLER_0_16_77
*489 FILLER_0_16_83
*490 FILLER_0_16_85
*491 FILLER_0_16_97
*492 FILLER_0_17_105
*493 FILLER_0_17_111
*494 FILLER_0_17_113
*495 FILLER_0_17_125
*496 FILLER_0_17_137
*497 FILLER_0_17_149
*498 FILLER_0_17_15
*499 FILLER_0_17_161
*500 FILLER_0_17_167
*501 FILLER_0_17_169
*502 FILLER_0_17_181
*503 FILLER_0_17_193
*504 FILLER_0_17_205
*505 FILLER_0_17_217
*506 FILLER_0_17_223
*507 FILLER_0_17_225
*508 FILLER_0_17_237
*509 FILLER_0_17_249
*510 FILLER_0_17_261
*511 FILLER_0_17_27
*512 FILLER_0_17_273
*513 FILLER_0_17_279
*514 FILLER_0_17_281
*515 FILLER_0_17_293
*516 FILLER_0_17_3
*517 FILLER_0_17_305
*518 FILLER_0_17_317
*519 FILLER_0_17_329
*520 FILLER_0_17_39
*521 FILLER_0_17_51
*522 FILLER_0_17_55
*523 FILLER_0_17_57
*524 FILLER_0_17_69
*525 FILLER_0_17_81
*526 FILLER_0_17_93
*527 FILLER_0_18_109
*528 FILLER_0_18_121
*529 FILLER_0_18_133
*530 FILLER_0_18_139
*531 FILLER_0_18_141
*532 FILLER_0_18_15
*533 FILLER_0_18_153
*534 FILLER_0_18_165
*535 FILLER_0_18_177
*536 FILLER_0_18_189
*537 FILLER_0_18_195
*538 FILLER_0_18_197
*539 FILLER_0_18_209
*540 FILLER_0_18_221
*541 FILLER_0_18_233
*542 FILLER_0_18_245
*543 FILLER_0_18_251
*544 FILLER_0_18_253
*545 FILLER_0_18_265
*546 FILLER_0_18_27
*547 FILLER_0_18_277
*548 FILLER_0_18_289
*549 FILLER_0_18_29
*550 FILLER_0_18_3
*551 FILLER_0_18_301
*552 FILLER_0_18_307
*553 FILLER_0_18_309
*554 FILLER_0_18_321
*555 FILLER_0_18_333
*556 FILLER_0_18_41
*557 FILLER_0_18_53
*558 FILLER_0_18_65
*559 FILLER_0_18_77
*560 FILLER_0_18_83
*561 FILLER_0_18_85
*562 FILLER_0_18_97
*563 FILLER_0_19_105
*564 FILLER_0_19_111
*565 FILLER_0_19_113
*566 FILLER_0_19_125
*567 FILLER_0_19_137
*568 FILLER_0_19_149
*569 FILLER_0_19_15
*570 FILLER_0_19_161
*571 FILLER_0_19_167
*572 FILLER_0_19_169
*573 FILLER_0_19_181
*574 FILLER_0_19_193
*575 FILLER_0_19_205
*576 FILLER_0_19_217
*577 FILLER_0_19_223
*578 FILLER_0_19_225
*579 FILLER_0_19_237
*580 FILLER_0_19_249
*581 FILLER_0_19_261
*582 FILLER_0_19_27
*583 FILLER_0_19_273
*584 FILLER_0_19_279
*585 FILLER_0_19_281
*586 FILLER_0_19_293
*587 FILLER_0_19_3
*588 FILLER_0_19_305
*589 FILLER_0_19_317
*590 FILLER_0_19_329
*591 FILLER_0_19_39
*592 FILLER_0_19_51
*593 FILLER_0_19_55
*594 FILLER_0_19_57
*595 FILLER_0_19_69
*596 FILLER_0_19_81
*597 FILLER_0_19_93
*598 FILLER_0_1_105
*599 FILLER_0_1_111
*600 FILLER_0_1_113
*601 FILLER_0_1_125
*602 FILLER_0_1_137
*603 FILLER_0_1_149
*604 FILLER_0_1_15
*605 FILLER_0_1_161
*606 FILLER_0_1_167
*607 FILLER_0_1_169
*608 FILLER_0_1_181
*609 FILLER_0_1_193
*610 FILLER_0_1_205
*611 FILLER_0_1_217
*612 FILLER_0_1_223
*613 FILLER_0_1_225
*614 FILLER_0_1_237
*615 FILLER_0_1_249
*616 FILLER_0_1_261
*617 FILLER_0_1_27
*618 FILLER_0_1_273
*619 FILLER_0_1_279
*620 FILLER_0_1_281
*621 FILLER_0_1_293
*622 FILLER_0_1_3
*623 FILLER_0_1_305
*624 FILLER_0_1_317
*625 FILLER_0_1_329
*626 FILLER_0_1_39
*627 FILLER_0_1_51
*628 FILLER_0_1_55
*629 FILLER_0_1_57
*630 FILLER_0_1_69
*631 FILLER_0_1_81
*632 FILLER_0_1_93
*633 FILLER_0_20_109
*634 FILLER_0_20_121
*635 FILLER_0_20_133
*636 FILLER_0_20_139
*637 FILLER_0_20_141
*638 FILLER_0_20_15
*639 FILLER_0_20_153
*640 FILLER_0_20_165
*641 FILLER_0_20_177
*642 FILLER_0_20_189
*643 FILLER_0_20_195
*644 FILLER_0_20_197
*645 FILLER_0_20_209
*646 FILLER_0_20_221
*647 FILLER_0_20_233
*648 FILLER_0_20_245
*649 FILLER_0_20_251
*650 FILLER_0_20_253
*651 FILLER_0_20_265
*652 FILLER_0_20_27
*653 FILLER_0_20_277
*654 FILLER_0_20_289
*655 FILLER_0_20_29
*656 FILLER_0_20_3
*657 FILLER_0_20_301
*658 FILLER_0_20_307
*659 FILLER_0_20_309
*660 FILLER_0_20_321
*661 FILLER_0_20_333
*662 FILLER_0_20_41
*663 FILLER_0_20_53
*664 FILLER_0_20_65
*665 FILLER_0_20_77
*666 FILLER_0_20_83
*667 FILLER_0_20_85
*668 FILLER_0_20_97
*669 FILLER_0_21_105
*670 FILLER_0_21_111
*671 FILLER_0_21_113
*672 FILLER_0_21_125
*673 FILLER_0_21_137
*674 FILLER_0_21_149
*675 FILLER_0_21_15
*676 FILLER_0_21_161
*677 FILLER_0_21_167
*678 FILLER_0_21_169
*679 FILLER_0_21_181
*680 FILLER_0_21_193
*681 FILLER_0_21_205
*682 FILLER_0_21_217
*683 FILLER_0_21_223
*684 FILLER_0_21_225
*685 FILLER_0_21_237
*686 FILLER_0_21_249
*687 FILLER_0_21_261
*688 FILLER_0_21_27
*689 FILLER_0_21_273
*690 FILLER_0_21_279
*691 FILLER_0_21_281
*692 FILLER_0_21_293
*693 FILLER_0_21_3
*694 FILLER_0_21_305
*695 FILLER_0_21_317
*696 FILLER_0_21_329
*697 FILLER_0_21_39
*698 FILLER_0_21_51
*699 FILLER_0_21_55
*700 FILLER_0_21_57
*701 FILLER_0_21_69
*702 FILLER_0_21_81
*703 FILLER_0_21_93
*704 FILLER_0_22_109
*705 FILLER_0_22_121
*706 FILLER_0_22_133
*707 FILLER_0_22_139
*708 FILLER_0_22_141
*709 FILLER_0_22_15
*710 FILLER_0_22_153
*711 FILLER_0_22_165
*712 FILLER_0_22_177
*713 FILLER_0_22_189
*714 FILLER_0_22_195
*715 FILLER_0_22_197
*716 FILLER_0_22_209
*717 FILLER_0_22_221
*718 FILLER_0_22_233
*719 FILLER_0_22_245
*720 FILLER_0_22_251
*721 FILLER_0_22_253
*722 FILLER_0_22_265
*723 FILLER_0_22_27
*724 FILLER_0_22_277
*725 FILLER_0_22_289
*726 FILLER_0_22_29
*727 FILLER_0_22_3
*728 FILLER_0_22_301
*729 FILLER_0_22_307
*730 FILLER_0_22_309
*731 FILLER_0_22_321
*732 FILLER_0_22_333
*733 FILLER_0_22_41
*734 FILLER_0_22_53
*735 FILLER_0_22_65
*736 FILLER_0_22_77
*737 FILLER_0_22_83
*738 FILLER_0_22_85
*739 FILLER_0_22_97
*740 FILLER_0_23_105
*741 FILLER_0_23_111
*742 FILLER_0_23_113
*743 FILLER_0_23_125
*744 FILLER_0_23_137
*745 FILLER_0_23_149
*746 FILLER_0_23_15
*747 FILLER_0_23_161
*748 FILLER_0_23_167
*749 FILLER_0_23_169
*750 FILLER_0_23_181
*751 FILLER_0_23_193
*752 FILLER_0_23_205
*753 FILLER_0_23_217
*754 FILLER_0_23_223
*755 FILLER_0_23_225
*756 FILLER_0_23_237
*757 FILLER_0_23_249
*758 FILLER_0_23_261
*759 FILLER_0_23_27
*760 FILLER_0_23_273
*761 FILLER_0_23_279
*762 FILLER_0_23_281
*763 FILLER_0_23_293
*764 FILLER_0_23_3
*765 FILLER_0_23_305
*766 FILLER_0_23_317
*767 FILLER_0_23_329
*768 FILLER_0_23_39
*769 FILLER_0_23_51
*770 FILLER_0_23_55
*771 FILLER_0_23_57
*772 FILLER_0_23_69
*773 FILLER_0_23_81
*774 FILLER_0_23_93
*775 FILLER_0_24_109
*776 FILLER_0_24_121
*777 FILLER_0_24_133
*778 FILLER_0_24_139
*779 FILLER_0_24_141
*780 FILLER_0_24_15
*781 FILLER_0_24_153
*782 FILLER_0_24_165
*783 FILLER_0_24_177
*784 FILLER_0_24_189
*785 FILLER_0_24_195
*786 FILLER_0_24_197
*787 FILLER_0_24_209
*788 FILLER_0_24_230
*789 FILLER_0_24_242
*790 FILLER_0_24_250
*791 FILLER_0_24_253
*792 FILLER_0_24_261
*793 FILLER_0_24_27
*794 FILLER_0_24_284
*795 FILLER_0_24_29
*796 FILLER_0_24_296
*797 FILLER_0_24_3
*798 FILLER_0_24_309
*799 FILLER_0_24_321
*800 FILLER_0_24_333
*801 FILLER_0_24_41
*802 FILLER_0_24_53
*803 FILLER_0_24_65
*804 FILLER_0_24_77
*805 FILLER_0_24_83
*806 FILLER_0_24_85
*807 FILLER_0_24_97
*808 FILLER_0_25_105
*809 FILLER_0_25_111
*810 FILLER_0_25_113
*811 FILLER_0_25_125
*812 FILLER_0_25_137
*813 FILLER_0_25_149
*814 FILLER_0_25_15
*815 FILLER_0_25_161
*816 FILLER_0_25_167
*817 FILLER_0_25_169
*818 FILLER_0_25_181
*819 FILLER_0_25_193
*820 FILLER_0_25_205
*821 FILLER_0_25_213
*822 FILLER_0_25_219
*823 FILLER_0_25_223
*824 FILLER_0_25_225
*825 FILLER_0_25_249
*826 FILLER_0_25_27
*827 FILLER_0_25_277
*828 FILLER_0_25_286
*829 FILLER_0_25_298
*830 FILLER_0_25_3
*831 FILLER_0_25_310
*832 FILLER_0_25_322
*833 FILLER_0_25_334
*834 FILLER_0_25_39
*835 FILLER_0_25_51
*836 FILLER_0_25_55
*837 FILLER_0_25_57
*838 FILLER_0_25_69
*839 FILLER_0_25_81
*840 FILLER_0_25_93
*841 FILLER_0_26_109
*842 FILLER_0_26_121
*843 FILLER_0_26_133
*844 FILLER_0_26_139
*845 FILLER_0_26_141
*846 FILLER_0_26_15
*847 FILLER_0_26_153
*848 FILLER_0_26_165
*849 FILLER_0_26_177
*850 FILLER_0_26_189
*851 FILLER_0_26_195
*852 FILLER_0_26_200
*853 FILLER_0_26_208
*854 FILLER_0_26_234
*855 FILLER_0_26_238
*856 FILLER_0_26_248
*857 FILLER_0_26_253
*858 FILLER_0_26_257
*859 FILLER_0_26_27
*860 FILLER_0_26_282
*861 FILLER_0_26_29
*862 FILLER_0_26_3
*863 FILLER_0_26_41
*864 FILLER_0_26_53
*865 FILLER_0_26_65
*866 FILLER_0_26_77
*867 FILLER_0_26_83
*868 FILLER_0_26_85
*869 FILLER_0_26_97
*870 FILLER_0_27_105
*871 FILLER_0_27_111
*872 FILLER_0_27_113
*873 FILLER_0_27_125
*874 FILLER_0_27_137
*875 FILLER_0_27_149
*876 FILLER_0_27_15
*877 FILLER_0_27_161
*878 FILLER_0_27_167
*879 FILLER_0_27_169
*880 FILLER_0_27_181
*881 FILLER_0_27_189
*882 FILLER_0_27_210
*883 FILLER_0_27_220
*884 FILLER_0_27_225
*885 FILLER_0_27_233
*886 FILLER_0_27_239
*887 FILLER_0_27_251
*888 FILLER_0_27_261
*889 FILLER_0_27_265
*890 FILLER_0_27_269
*891 FILLER_0_27_27
*892 FILLER_0_27_277
*893 FILLER_0_27_281
*894 FILLER_0_27_3
*895 FILLER_0_27_326
*896 FILLER_0_27_39
*897 FILLER_0_27_51
*898 FILLER_0_27_55
*899 FILLER_0_27_57
*900 FILLER_0_27_69
*901 FILLER_0_27_81
*902 FILLER_0_27_93
*903 FILLER_0_28_109
*904 FILLER_0_28_121
*905 FILLER_0_28_133
*906 FILLER_0_28_139
*907 FILLER_0_28_141
*908 FILLER_0_28_15
*909 FILLER_0_28_153
*910 FILLER_0_28_165
*911 FILLER_0_28_177
*912 FILLER_0_28_189
*913 FILLER_0_28_195
*914 FILLER_0_28_197
*915 FILLER_0_28_228
*916 FILLER_0_28_240
*917 FILLER_0_28_269
*918 FILLER_0_28_27
*919 FILLER_0_28_281
*920 FILLER_0_28_29
*921 FILLER_0_28_293
*922 FILLER_0_28_3
*923 FILLER_0_28_326
*924 FILLER_0_28_334
*925 FILLER_0_28_41
*926 FILLER_0_28_53
*927 FILLER_0_28_65
*928 FILLER_0_28_77
*929 FILLER_0_28_83
*930 FILLER_0_28_85
*931 FILLER_0_28_97
*932 FILLER_0_29_105
*933 FILLER_0_29_111
*934 FILLER_0_29_113
*935 FILLER_0_29_125
*936 FILLER_0_29_137
*937 FILLER_0_29_149
*938 FILLER_0_29_15
*939 FILLER_0_29_161
*940 FILLER_0_29_167
*941 FILLER_0_29_169
*942 FILLER_0_29_181
*943 FILLER_0_29_193
*944 FILLER_0_29_208
*945 FILLER_0_29_220
*946 FILLER_0_29_231
*947 FILLER_0_29_243
*948 FILLER_0_29_251
*949 FILLER_0_29_255
*950 FILLER_0_29_27
*951 FILLER_0_29_272
*952 FILLER_0_29_281
*953 FILLER_0_29_293
*954 FILLER_0_29_3
*955 FILLER_0_29_311
*956 FILLER_0_29_323
*957 FILLER_0_29_39
*958 FILLER_0_29_51
*959 FILLER_0_29_55
*960 FILLER_0_29_57
*961 FILLER_0_29_69
*962 FILLER_0_29_81
*963 FILLER_0_29_93
*964 FILLER_0_2_109
*965 FILLER_0_2_121
*966 FILLER_0_2_133
*967 FILLER_0_2_139
*968 FILLER_0_2_141
*969 FILLER_0_2_15
*970 FILLER_0_2_153
*971 FILLER_0_2_165
*972 FILLER_0_2_177
*973 FILLER_0_2_189
*974 FILLER_0_2_195
*975 FILLER_0_2_197
*976 FILLER_0_2_209
*977 FILLER_0_2_221
*978 FILLER_0_2_233
*979 FILLER_0_2_245
*980 FILLER_0_2_251
*981 FILLER_0_2_253
*982 FILLER_0_2_265
*983 FILLER_0_2_27
*984 FILLER_0_2_277
*985 FILLER_0_2_289
*986 FILLER_0_2_29
*987 FILLER_0_2_3
*988 FILLER_0_2_301
*989 FILLER_0_2_307
*990 FILLER_0_2_309
*991 FILLER_0_2_321
*992 FILLER_0_2_333
*993 FILLER_0_2_41
*994 FILLER_0_2_53
*995 FILLER_0_2_65
*996 FILLER_0_2_77
*997 FILLER_0_2_83
*998 FILLER_0_2_85
*999 FILLER_0_2_97
*1000 FILLER_0_30_109
*1001 FILLER_0_30_121
*1002 FILLER_0_30_133
*1003 FILLER_0_30_139
*1004 FILLER_0_30_141
*1005 FILLER_0_30_15
*1006 FILLER_0_30_153
*1007 FILLER_0_30_165
*1008 FILLER_0_30_177
*1009 FILLER_0_30_189
*1010 FILLER_0_30_195
*1011 FILLER_0_30_225
*1012 FILLER_0_30_231
*1013 FILLER_0_30_238
*1014 FILLER_0_30_27
*1015 FILLER_0_30_281
*1016 FILLER_0_30_289
*1017 FILLER_0_30_29
*1018 FILLER_0_30_3
*1019 FILLER_0_30_306
*1020 FILLER_0_30_309
*1021 FILLER_0_30_320
*1022 FILLER_0_30_332
*1023 FILLER_0_30_41
*1024 FILLER_0_30_53
*1025 FILLER_0_30_65
*1026 FILLER_0_30_77
*1027 FILLER_0_30_83
*1028 FILLER_0_30_85
*1029 FILLER_0_30_97
*1030 FILLER_0_31_105
*1031 FILLER_0_31_111
*1032 FILLER_0_31_113
*1033 FILLER_0_31_125
*1034 FILLER_0_31_137
*1035 FILLER_0_31_149
*1036 FILLER_0_31_15
*1037 FILLER_0_31_161
*1038 FILLER_0_31_167
*1039 FILLER_0_31_169
*1040 FILLER_0_31_181
*1041 FILLER_0_31_193
*1042 FILLER_0_31_199
*1043 FILLER_0_31_203
*1044 FILLER_0_31_215
*1045 FILLER_0_31_232
*1046 FILLER_0_31_253
*1047 FILLER_0_31_27
*1048 FILLER_0_31_281
*1049 FILLER_0_31_3
*1050 FILLER_0_31_309
*1051 FILLER_0_31_334
*1052 FILLER_0_31_39
*1053 FILLER_0_31_51
*1054 FILLER_0_31_55
*1055 FILLER_0_31_57
*1056 FILLER_0_31_69
*1057 FILLER_0_31_81
*1058 FILLER_0_31_93
*1059 FILLER_0_32_109
*1060 FILLER_0_32_121
*1061 FILLER_0_32_133
*1062 FILLER_0_32_139
*1063 FILLER_0_32_141
*1064 FILLER_0_32_15
*1065 FILLER_0_32_153
*1066 FILLER_0_32_165
*1067 FILLER_0_32_177
*1068 FILLER_0_32_189
*1069 FILLER_0_32_195
*1070 FILLER_0_32_217
*1071 FILLER_0_32_225
*1072 FILLER_0_32_238
*1073 FILLER_0_32_246
*1074 FILLER_0_32_27
*1075 FILLER_0_32_282
*1076 FILLER_0_32_29
*1077 FILLER_0_32_3
*1078 FILLER_0_32_307
*1079 FILLER_0_32_317
*1080 FILLER_0_32_329
*1081 FILLER_0_32_41
*1082 FILLER_0_32_53
*1083 FILLER_0_32_65
*1084 FILLER_0_32_77
*1085 FILLER_0_32_83
*1086 FILLER_0_32_85
*1087 FILLER_0_32_97
*1088 FILLER_0_33_105
*1089 FILLER_0_33_111
*1090 FILLER_0_33_113
*1091 FILLER_0_33_125
*1092 FILLER_0_33_137
*1093 FILLER_0_33_149
*1094 FILLER_0_33_15
*1095 FILLER_0_33_161
*1096 FILLER_0_33_167
*1097 FILLER_0_33_169
*1098 FILLER_0_33_181
*1099 FILLER_0_33_193
*1100 FILLER_0_33_215
*1101 FILLER_0_33_223
*1102 FILLER_0_33_225
*1103 FILLER_0_33_234
*1104 FILLER_0_33_246
*1105 FILLER_0_33_254
*1106 FILLER_0_33_27
*1107 FILLER_0_33_274
*1108 FILLER_0_33_279
*1109 FILLER_0_33_281
*1110 FILLER_0_33_296
*1111 FILLER_0_33_3
*1112 FILLER_0_33_308
*1113 FILLER_0_33_312
*1114 FILLER_0_33_333
*1115 FILLER_0_33_39
*1116 FILLER_0_33_51
*1117 FILLER_0_33_55
*1118 FILLER_0_33_57
*1119 FILLER_0_33_69
*1120 FILLER_0_33_81
*1121 FILLER_0_33_93
*1122 FILLER_0_34_109
*1123 FILLER_0_34_121
*1124 FILLER_0_34_133
*1125 FILLER_0_34_139
*1126 FILLER_0_34_141
*1127 FILLER_0_34_15
*1128 FILLER_0_34_153
*1129 FILLER_0_34_165
*1130 FILLER_0_34_177
*1131 FILLER_0_34_189
*1132 FILLER_0_34_195
*1133 FILLER_0_34_213
*1134 FILLER_0_34_221
*1135 FILLER_0_34_237
*1136 FILLER_0_34_249
*1137 FILLER_0_34_259
*1138 FILLER_0_34_269
*1139 FILLER_0_34_27
*1140 FILLER_0_34_281
*1141 FILLER_0_34_29
*1142 FILLER_0_34_293
*1143 FILLER_0_34_3
*1144 FILLER_0_34_305
*1145 FILLER_0_34_309
*1146 FILLER_0_34_322
*1147 FILLER_0_34_334
*1148 FILLER_0_34_41
*1149 FILLER_0_34_53
*1150 FILLER_0_34_65
*1151 FILLER_0_34_77
*1152 FILLER_0_34_83
*1153 FILLER_0_34_85
*1154 FILLER_0_34_97
*1155 FILLER_0_35_105
*1156 FILLER_0_35_111
*1157 FILLER_0_35_113
*1158 FILLER_0_35_125
*1159 FILLER_0_35_137
*1160 FILLER_0_35_149
*1161 FILLER_0_35_15
*1162 FILLER_0_35_161
*1163 FILLER_0_35_167
*1164 FILLER_0_35_169
*1165 FILLER_0_35_181
*1166 FILLER_0_35_193
*1167 FILLER_0_35_205
*1168 FILLER_0_35_217
*1169 FILLER_0_35_252
*1170 FILLER_0_35_260
*1171 FILLER_0_35_27
*1172 FILLER_0_35_278
*1173 FILLER_0_35_286
*1174 FILLER_0_35_3
*1175 FILLER_0_35_325
*1176 FILLER_0_35_39
*1177 FILLER_0_35_51
*1178 FILLER_0_35_55
*1179 FILLER_0_35_57
*1180 FILLER_0_35_69
*1181 FILLER_0_35_81
*1182 FILLER_0_35_93
*1183 FILLER_0_36_109
*1184 FILLER_0_36_121
*1185 FILLER_0_36_133
*1186 FILLER_0_36_139
*1187 FILLER_0_36_141
*1188 FILLER_0_36_15
*1189 FILLER_0_36_153
*1190 FILLER_0_36_165
*1191 FILLER_0_36_177
*1192 FILLER_0_36_189
*1193 FILLER_0_36_195
*1194 FILLER_0_36_197
*1195 FILLER_0_36_209
*1196 FILLER_0_36_213
*1197 FILLER_0_36_244
*1198 FILLER_0_36_253
*1199 FILLER_0_36_261
*1200 FILLER_0_36_27
*1201 FILLER_0_36_29
*1202 FILLER_0_36_290
*1203 FILLER_0_36_3
*1204 FILLER_0_36_309
*1205 FILLER_0_36_333
*1206 FILLER_0_36_41
*1207 FILLER_0_36_53
*1208 FILLER_0_36_65
*1209 FILLER_0_36_77
*1210 FILLER_0_36_83
*1211 FILLER_0_36_85
*1212 FILLER_0_36_97
*1213 FILLER_0_37_105
*1214 FILLER_0_37_111
*1215 FILLER_0_37_113
*1216 FILLER_0_37_125
*1217 FILLER_0_37_137
*1218 FILLER_0_37_149
*1219 FILLER_0_37_15
*1220 FILLER_0_37_161
*1221 FILLER_0_37_167
*1222 FILLER_0_37_169
*1223 FILLER_0_37_181
*1224 FILLER_0_37_189
*1225 FILLER_0_37_197
*1226 FILLER_0_37_209
*1227 FILLER_0_37_246
*1228 FILLER_0_37_27
*1229 FILLER_0_37_275
*1230 FILLER_0_37_279
*1231 FILLER_0_37_290
*1232 FILLER_0_37_3
*1233 FILLER_0_37_333
*1234 FILLER_0_37_39
*1235 FILLER_0_37_51
*1236 FILLER_0_37_55
*1237 FILLER_0_37_57
*1238 FILLER_0_37_69
*1239 FILLER_0_37_81
*1240 FILLER_0_37_93
*1241 FILLER_0_38_10
*1242 FILLER_0_38_102
*1243 FILLER_0_38_106
*1244 FILLER_0_38_110
*1245 FILLER_0_38_113
*1246 FILLER_0_38_118
*1247 FILLER_0_38_122
*1248 FILLER_0_38_126
*1249 FILLER_0_38_130
*1250 FILLER_0_38_134
*1251 FILLER_0_38_14
*1252 FILLER_0_38_144
*1253 FILLER_0_38_150
*1254 FILLER_0_38_154
*1255 FILLER_0_38_158
*1256 FILLER_0_38_162
*1257 FILLER_0_38_166
*1258 FILLER_0_38_169
*1259 FILLER_0_38_174
*1260 FILLER_0_38_178
*1261 FILLER_0_38_18
*1262 FILLER_0_38_182
*1263 FILLER_0_38_194
*1264 FILLER_0_38_197
*1265 FILLER_0_38_209
*1266 FILLER_0_38_22
*1267 FILLER_0_38_221
*1268 FILLER_0_38_225
*1269 FILLER_0_38_237
*1270 FILLER_0_38_249
*1271 FILLER_0_38_253
*1272 FILLER_0_38_262
*1273 FILLER_0_38_266
*1274 FILLER_0_38_278
*1275 FILLER_0_38_287
*1276 FILLER_0_38_294
*1277 FILLER_0_38_307
*1278 FILLER_0_38_32
*1279 FILLER_0_38_320
*1280 FILLER_0_38_329
*1281 FILLER_0_38_38
*1282 FILLER_0_38_42
*1283 FILLER_0_38_46
*1284 FILLER_0_38_50
*1285 FILLER_0_38_54
*1286 FILLER_0_38_57
*1287 FILLER_0_38_6
*1288 FILLER_0_38_62
*1289 FILLER_0_38_66
*1290 FILLER_0_38_70
*1291 FILLER_0_38_74
*1292 FILLER_0_38_78
*1293 FILLER_0_38_88
*1294 FILLER_0_38_94
*1295 FILLER_0_38_98
*1296 FILLER_0_3_105
*1297 FILLER_0_3_111
*1298 FILLER_0_3_113
*1299 FILLER_0_3_125
*1300 FILLER_0_3_137
*1301 FILLER_0_3_149
*1302 FILLER_0_3_15
*1303 FILLER_0_3_161
*1304 FILLER_0_3_167
*1305 FILLER_0_3_169
*1306 FILLER_0_3_181
*1307 FILLER_0_3_193
*1308 FILLER_0_3_205
*1309 FILLER_0_3_217
*1310 FILLER_0_3_223
*1311 FILLER_0_3_225
*1312 FILLER_0_3_237
*1313 FILLER_0_3_249
*1314 FILLER_0_3_261
*1315 FILLER_0_3_27
*1316 FILLER_0_3_273
*1317 FILLER_0_3_279
*1318 FILLER_0_3_281
*1319 FILLER_0_3_293
*1320 FILLER_0_3_3
*1321 FILLER_0_3_305
*1322 FILLER_0_3_317
*1323 FILLER_0_3_329
*1324 FILLER_0_3_39
*1325 FILLER_0_3_51
*1326 FILLER_0_3_55
*1327 FILLER_0_3_57
*1328 FILLER_0_3_69
*1329 FILLER_0_3_81
*1330 FILLER_0_3_93
*1331 FILLER_0_4_109
*1332 FILLER_0_4_121
*1333 FILLER_0_4_133
*1334 FILLER_0_4_139
*1335 FILLER_0_4_141
*1336 FILLER_0_4_15
*1337 FILLER_0_4_153
*1338 FILLER_0_4_165
*1339 FILLER_0_4_177
*1340 FILLER_0_4_189
*1341 FILLER_0_4_195
*1342 FILLER_0_4_197
*1343 FILLER_0_4_209
*1344 FILLER_0_4_221
*1345 FILLER_0_4_233
*1346 FILLER_0_4_245
*1347 FILLER_0_4_251
*1348 FILLER_0_4_253
*1349 FILLER_0_4_265
*1350 FILLER_0_4_27
*1351 FILLER_0_4_277
*1352 FILLER_0_4_289
*1353 FILLER_0_4_29
*1354 FILLER_0_4_3
*1355 FILLER_0_4_301
*1356 FILLER_0_4_307
*1357 FILLER_0_4_309
*1358 FILLER_0_4_321
*1359 FILLER_0_4_333
*1360 FILLER_0_4_41
*1361 FILLER_0_4_53
*1362 FILLER_0_4_65
*1363 FILLER_0_4_77
*1364 FILLER_0_4_83
*1365 FILLER_0_4_85
*1366 FILLER_0_4_97
*1367 FILLER_0_5_105
*1368 FILLER_0_5_111
*1369 FILLER_0_5_113
*1370 FILLER_0_5_125
*1371 FILLER_0_5_137
*1372 FILLER_0_5_149
*1373 FILLER_0_5_15
*1374 FILLER_0_5_161
*1375 FILLER_0_5_167
*1376 FILLER_0_5_169
*1377 FILLER_0_5_181
*1378 FILLER_0_5_193
*1379 FILLER_0_5_205
*1380 FILLER_0_5_217
*1381 FILLER_0_5_223
*1382 FILLER_0_5_225
*1383 FILLER_0_5_237
*1384 FILLER_0_5_249
*1385 FILLER_0_5_261
*1386 FILLER_0_5_27
*1387 FILLER_0_5_273
*1388 FILLER_0_5_279
*1389 FILLER_0_5_281
*1390 FILLER_0_5_293
*1391 FILLER_0_5_3
*1392 FILLER_0_5_305
*1393 FILLER_0_5_317
*1394 FILLER_0_5_329
*1395 FILLER_0_5_39
*1396 FILLER_0_5_51
*1397 FILLER_0_5_55
*1398 FILLER_0_5_57
*1399 FILLER_0_5_69
*1400 FILLER_0_5_81
*1401 FILLER_0_5_93
*1402 FILLER_0_6_109
*1403 FILLER_0_6_121
*1404 FILLER_0_6_133
*1405 FILLER_0_6_139
*1406 FILLER_0_6_141
*1407 FILLER_0_6_15
*1408 FILLER_0_6_153
*1409 FILLER_0_6_165
*1410 FILLER_0_6_177
*1411 FILLER_0_6_189
*1412 FILLER_0_6_195
*1413 FILLER_0_6_197
*1414 FILLER_0_6_209
*1415 FILLER_0_6_221
*1416 FILLER_0_6_233
*1417 FILLER_0_6_245
*1418 FILLER_0_6_251
*1419 FILLER_0_6_253
*1420 FILLER_0_6_265
*1421 FILLER_0_6_27
*1422 FILLER_0_6_277
*1423 FILLER_0_6_289
*1424 FILLER_0_6_29
*1425 FILLER_0_6_3
*1426 FILLER_0_6_301
*1427 FILLER_0_6_307
*1428 FILLER_0_6_309
*1429 FILLER_0_6_321
*1430 FILLER_0_6_333
*1431 FILLER_0_6_41
*1432 FILLER_0_6_53
*1433 FILLER_0_6_65
*1434 FILLER_0_6_77
*1435 FILLER_0_6_83
*1436 FILLER_0_6_85
*1437 FILLER_0_6_97
*1438 FILLER_0_7_105
*1439 FILLER_0_7_111
*1440 FILLER_0_7_113
*1441 FILLER_0_7_125
*1442 FILLER_0_7_137
*1443 FILLER_0_7_149
*1444 FILLER_0_7_15
*1445 FILLER_0_7_161
*1446 FILLER_0_7_167
*1447 FILLER_0_7_169
*1448 FILLER_0_7_181
*1449 FILLER_0_7_193
*1450 FILLER_0_7_205
*1451 FILLER_0_7_217
*1452 FILLER_0_7_223
*1453 FILLER_0_7_225
*1454 FILLER_0_7_237
*1455 FILLER_0_7_249
*1456 FILLER_0_7_261
*1457 FILLER_0_7_27
*1458 FILLER_0_7_273
*1459 FILLER_0_7_279
*1460 FILLER_0_7_281
*1461 FILLER_0_7_293
*1462 FILLER_0_7_3
*1463 FILLER_0_7_305
*1464 FILLER_0_7_317
*1465 FILLER_0_7_329
*1466 FILLER_0_7_39
*1467 FILLER_0_7_51
*1468 FILLER_0_7_55
*1469 FILLER_0_7_57
*1470 FILLER_0_7_69
*1471 FILLER_0_7_81
*1472 FILLER_0_7_93
*1473 FILLER_0_8_109
*1474 FILLER_0_8_121
*1475 FILLER_0_8_133
*1476 FILLER_0_8_139
*1477 FILLER_0_8_141
*1478 FILLER_0_8_15
*1479 FILLER_0_8_153
*1480 FILLER_0_8_165
*1481 FILLER_0_8_177
*1482 FILLER_0_8_189
*1483 FILLER_0_8_195
*1484 FILLER_0_8_197
*1485 FILLER_0_8_209
*1486 FILLER_0_8_221
*1487 FILLER_0_8_233
*1488 FILLER_0_8_245
*1489 FILLER_0_8_251
*1490 FILLER_0_8_253
*1491 FILLER_0_8_265
*1492 FILLER_0_8_27
*1493 FILLER_0_8_277
*1494 FILLER_0_8_289
*1495 FILLER_0_8_29
*1496 FILLER_0_8_3
*1497 FILLER_0_8_301
*1498 FILLER_0_8_307
*1499 FILLER_0_8_309
*1500 FILLER_0_8_321
*1501 FILLER_0_8_333
*1502 FILLER_0_8_41
*1503 FILLER_0_8_53
*1504 FILLER_0_8_65
*1505 FILLER_0_8_77
*1506 FILLER_0_8_83
*1507 FILLER_0_8_85
*1508 FILLER_0_8_97
*1509 FILLER_0_9_105
*1510 FILLER_0_9_111
*1511 FILLER_0_9_113
*1512 FILLER_0_9_125
*1513 FILLER_0_9_137
*1514 FILLER_0_9_149