*SPEF "ieee 1481-1999"
*DESIGN "tt_um_LFSR_shivam"
*DATE "15:41:27 Thursday April 11, 2024"
*VENDOR "The OpenROAD Project"
*PROGRAM "OpenROAD"
*VERSION "0889970d1790a2617e69f253221b8bd7626e51dc"
*DESIGN_FLOW "NAME_SCOPE LOCAL" "PIN_CAP NONE"
*DIVIDER /
*DELIMITER :
*BUS_DELIMITER []
*T_UNIT 1 NS
*C_UNIT 1 PF
*R_UNIT 1 OHM
*L_UNIT 1 HENRY

*NAME_MAP
*3 clk
*4 ena
*5 rst_n
*6 ui_in[0]
*7 ui_in[1]
*8 ui_in[2]
*9 ui_in[3]
*10 ui_in[4]
*11 ui_in[5]
*12 ui_in[6]
*13 ui_in[7]
*14 uio_in[0]
*15 uio_in[1]
*16 uio_in[2]
*17 uio_in[3]
*18 uio_in[4]
*19 uio_in[5]
*20 uio_in[6]
*21 uio_in[7]
*22 net2
*23 net3
*24 net4
*25 net5
*26 net6
*27 net7
*28 net8
*29 net9
*30 net10
*31 net11
*32 net12
*33 net13
*34 net14
*35 net15
*36 net16
*37 net17
*38 uo_out[0]
*39 uo_out[1]
*40 uo_out[2]
*41 uo_out[3]
*42 uo_out[4]
*43 uo_out[5]
*44 uo_out[6]
*45 uo_out[7]
*46 _00_
*47 _01_
*48 _02_
*49 _03_
*50 _04_
*51 _05_
*52 _06_
*53 _07_
*54 _08_
*55 _09_
*56 _10_
*57 _11_
*58 _12_
*59 _13_
*60 _14_
*61 _15_
*62 _16_
*63 _17_
*64 _18_
*65 _19_
*66 _20_
*67 clknet_0_clk
*68 clknet_1_0__leaf_clk
*69 clknet_1_1__leaf_clk
*70 net1
*71 net18
*72 net19
*73 net20
*74 net21
*75 net22
*76 net23
*77 net24
*78 net25
*79 net26
*80 net27
*81 out\[0\]
*82 out\[1\]
*83 out\[2\]
*84 out\[3\]
*85 out\[4\]
*86 out\[5\]
*87 out\[6\]
*88 out\[7\]
*89 out\[8\]
*90 out\[9\]
*91 FILLER_0_0_109
*92 FILLER_0_0_113
*93 FILLER_0_0_125
*94 FILLER_0_0_137
*95 FILLER_0_0_141
*96 FILLER_0_0_15
*97 FILLER_0_0_153
*98 FILLER_0_0_165
*99 FILLER_0_0_169
*100 FILLER_0_0_181
*101 FILLER_0_0_193
*102 FILLER_0_0_197
*103 FILLER_0_0_209
*104 FILLER_0_0_221
*105 FILLER_0_0_225
*106 FILLER_0_0_237
*107 FILLER_0_0_249
*108 FILLER_0_0_253
*109 FILLER_0_0_265
*110 FILLER_0_0_27
*111 FILLER_0_0_277
*112 FILLER_0_0_281
*113 FILLER_0_0_29
*114 FILLER_0_0_293
*115 FILLER_0_0_3
*116 FILLER_0_0_305
*117 FILLER_0_0_309
*118 FILLER_0_0_321
*119 FILLER_0_0_333
*120 FILLER_0_0_41
*121 FILLER_0_0_53
*122 FILLER_0_0_57
*123 FILLER_0_0_69
*124 FILLER_0_0_81
*125 FILLER_0_0_85
*126 FILLER_0_0_97
*127 FILLER_0_10_109
*128 FILLER_0_10_121
*129 FILLER_0_10_133
*130 FILLER_0_10_139
*131 FILLER_0_10_141
*132 FILLER_0_10_15
*133 FILLER_0_10_153
*134 FILLER_0_10_165
*135 FILLER_0_10_177
*136 FILLER_0_10_189
*137 FILLER_0_10_195
*138 FILLER_0_10_197
*139 FILLER_0_10_209
*140 FILLER_0_10_221
*141 FILLER_0_10_233
*142 FILLER_0_10_245
*143 FILLER_0_10_251
*144 FILLER_0_10_253
*145 FILLER_0_10_265
*146 FILLER_0_10_27
*147 FILLER_0_10_277
*148 FILLER_0_10_289
*149 FILLER_0_10_29
*150 FILLER_0_10_3
*151 FILLER_0_10_301
*152 FILLER_0_10_307
*153 FILLER_0_10_309
*154 FILLER_0_10_321
*155 FILLER_0_10_333
*156 FILLER_0_10_41
*157 FILLER_0_10_53
*158 FILLER_0_10_65
*159 FILLER_0_10_77
*160 FILLER_0_10_83
*161 FILLER_0_10_85
*162 FILLER_0_10_97
*163 FILLER_0_11_105
*164 FILLER_0_11_111
*165 FILLER_0_11_113
*166 FILLER_0_11_125
*167 FILLER_0_11_137
*168 FILLER_0_11_149
*169 FILLER_0_11_15
*170 FILLER_0_11_161
*171 FILLER_0_11_167
*172 FILLER_0_11_169
*173 FILLER_0_11_181
*174 FILLER_0_11_193
*175 FILLER_0_11_205
*176 FILLER_0_11_217
*177 FILLER_0_11_223
*178 FILLER_0_11_225
*179 FILLER_0_11_237
*180 FILLER_0_11_249
*181 FILLER_0_11_261
*182 FILLER_0_11_27
*183 FILLER_0_11_273
*184 FILLER_0_11_279
*185 FILLER_0_11_281
*186 FILLER_0_11_293
*187 FILLER_0_11_3
*188 FILLER_0_11_305
*189 FILLER_0_11_317
*190 FILLER_0_11_329
*191 FILLER_0_11_39
*192 FILLER_0_11_51
*193 FILLER_0_11_55
*194 FILLER_0_11_57
*195 FILLER_0_11_69
*196 FILLER_0_11_81
*197 FILLER_0_11_93
*198 FILLER_0_12_109
*199 FILLER_0_12_121
*200 FILLER_0_12_133
*201 FILLER_0_12_139
*202 FILLER_0_12_141
*203 FILLER_0_12_15
*204 FILLER_0_12_153
*205 FILLER_0_12_165
*206 FILLER_0_12_177
*207 FILLER_0_12_189
*208 FILLER_0_12_195
*209 FILLER_0_12_197
*210 FILLER_0_12_209
*211 FILLER_0_12_221
*212 FILLER_0_12_233
*213 FILLER_0_12_245
*214 FILLER_0_12_251
*215 FILLER_0_12_253
*216 FILLER_0_12_265
*217 FILLER_0_12_27
*218 FILLER_0_12_277
*219 FILLER_0_12_289
*220 FILLER_0_12_29
*221 FILLER_0_12_3
*222 FILLER_0_12_301
*223 FILLER_0_12_307
*224 FILLER_0_12_309
*225 FILLER_0_12_321
*226 FILLER_0_12_333
*227 FILLER_0_12_41
*228 FILLER_0_12_53
*229 FILLER_0_12_65
*230 FILLER_0_12_77
*231 FILLER_0_12_83
*232 FILLER_0_12_85
*233 FILLER_0_12_97
*234 FILLER_0_13_105
*235 FILLER_0_13_111
*236 FILLER_0_13_113
*237 FILLER_0_13_125
*238 FILLER_0_13_137
*239 FILLER_0_13_149
*240 FILLER_0_13_15
*241 FILLER_0_13_161
*242 FILLER_0_13_167
*243 FILLER_0_13_169
*244 FILLER_0_13_181
*245 FILLER_0_13_193
*246 FILLER_0_13_205
*247 FILLER_0_13_217
*248 FILLER_0_13_223
*249 FILLER_0_13_225
*250 FILLER_0_13_237
*251 FILLER_0_13_249
*252 FILLER_0_13_261
*253 FILLER_0_13_27
*254 FILLER_0_13_273
*255 FILLER_0_13_279
*256 FILLER_0_13_281
*257 FILLER_0_13_293
*258 FILLER_0_13_3
*259 FILLER_0_13_305
*260 FILLER_0_13_317
*261 FILLER_0_13_329
*262 FILLER_0_13_39
*263 FILLER_0_13_51
*264 FILLER_0_13_55
*265 FILLER_0_13_57
*266 FILLER_0_13_69
*267 FILLER_0_13_81
*268 FILLER_0_13_93
*269 FILLER_0_14_109
*270 FILLER_0_14_121
*271 FILLER_0_14_133
*272 FILLER_0_14_139
*273 FILLER_0_14_141
*274 FILLER_0_14_15
*275 FILLER_0_14_153
*276 FILLER_0_14_165
*277 FILLER_0_14_177
*278 FILLER_0_14_189
*279 FILLER_0_14_195
*280 FILLER_0_14_197
*281 FILLER_0_14_209
*282 FILLER_0_14_221
*283 FILLER_0_14_233
*284 FILLER_0_14_245
*285 FILLER_0_14_251
*286 FILLER_0_14_253
*287 FILLER_0_14_265
*288 FILLER_0_14_27
*289 FILLER_0_14_277
*290 FILLER_0_14_289
*291 FILLER_0_14_29
*292 FILLER_0_14_3
*293 FILLER_0_14_301
*294 FILLER_0_14_307
*295 FILLER_0_14_309
*296 FILLER_0_14_321
*297 FILLER_0_14_333
*298 FILLER_0_14_41
*299 FILLER_0_14_53
*300 FILLER_0_14_65
*301 FILLER_0_14_77
*302 FILLER_0_14_83
*303 FILLER_0_14_85
*304 FILLER_0_14_97
*305 FILLER_0_15_105
*306 FILLER_0_15_111
*307 FILLER_0_15_113
*308 FILLER_0_15_125
*309 FILLER_0_15_137
*310 FILLER_0_15_149
*311 FILLER_0_15_15
*312 FILLER_0_15_161
*313 FILLER_0_15_167
*314 FILLER_0_15_169
*315 FILLER_0_15_181
*316 FILLER_0_15_193
*317 FILLER_0_15_205
*318 FILLER_0_15_217
*319 FILLER_0_15_223
*320 FILLER_0_15_225
*321 FILLER_0_15_237
*322 FILLER_0_15_249
*323 FILLER_0_15_261
*324 FILLER_0_15_27
*325 FILLER_0_15_273
*326 FILLER_0_15_279
*327 FILLER_0_15_281
*328 FILLER_0_15_293
*329 FILLER_0_15_3
*330 FILLER_0_15_305
*331 FILLER_0_15_317
*332 FILLER_0_15_329
*333 FILLER_0_15_39
*334 FILLER_0_15_51
*335 FILLER_0_15_55
*336 FILLER_0_15_57
*337 FILLER_0_15_69
*338 FILLER_0_15_81
*339 FILLER_0_15_93
*340 FILLER_0_16_109
*341 FILLER_0_16_121
*342 FILLER_0_16_133
*343 FILLER_0_16_139
*344 FILLER_0_16_141
*345 FILLER_0_16_15
*346 FILLER_0_16_153
*347 FILLER_0_16_165
*348 FILLER_0_16_177
*349 FILLER_0_16_189
*350 FILLER_0_16_195
*351 FILLER_0_16_197
*352 FILLER_0_16_209
*353 FILLER_0_16_221
*354 FILLER_0_16_233
*355 FILLER_0_16_245
*356 FILLER_0_16_251
*357 FILLER_0_16_253
*358 FILLER_0_16_265
*359 FILLER_0_16_27
*360 FILLER_0_16_277
*361 FILLER_0_16_289
*362 FILLER_0_16_29
*363 FILLER_0_16_3
*364 FILLER_0_16_301
*365 FILLER_0_16_307
*366 FILLER_0_16_309
*367 FILLER_0_16_321
*368 FILLER_0_16_333
*369 FILLER_0_16_41
*370 FILLER_0_16_53
*371 FILLER_0_16_65
*372 FILLER_0_16_77
*373 FILLER_0_16_83
*374 FILLER_0_16_85
*375 FILLER_0_16_97
*376 FILLER_0_17_105
*377 FILLER_0_17_111
*378 FILLER_0_17_113
*379 FILLER_0_17_125
*380 FILLER_0_17_137
*381 FILLER_0_17_149
*382 FILLER_0_17_15
*383 FILLER_0_17_161
*384 FILLER_0_17_167
*385 FILLER_0_17_169
*386 FILLER_0_17_181
*387 FILLER_0_17_193
*388 FILLER_0_17_205
*389 FILLER_0_17_217
*390 FILLER_0_17_223
*391 FILLER_0_17_225
*392 FILLER_0_17_237
*393 FILLER_0_17_249
*394 FILLER_0_17_261
*395 FILLER_0_17_27
*396 FILLER_0_17_273
*397 FILLER_0_17_279
*398 FILLER_0_17_281
*399 FILLER_0_17_293
*400 FILLER_0_17_3
*401 FILLER_0_17_305
*402 FILLER_0_17_317
*403 FILLER_0_17_329
*404 FILLER_0_17_39
*405 FILLER_0_17_51
*406 FILLER_0_17_55
*407 FILLER_0_17_57
*408 FILLER_0_17_69
*409 FILLER_0_17_81
*410 FILLER_0_17_93
*411 FILLER_0_18_109
*412 FILLER_0_18_121
*413 FILLER_0_18_133
*414 FILLER_0_18_139
*415 FILLER_0_18_141
*416 FILLER_0_18_15
*417 FILLER_0_18_153
*418 FILLER_0_18_165
*419 FILLER_0_18_177
*420 FILLER_0_18_189
*421 FILLER_0_18_195
*422 FILLER_0_18_197
*423 FILLER_0_18_209
*424 FILLER_0_18_221
*425 FILLER_0_18_233
*426 FILLER_0_18_245
*427 FILLER_0_18_251
*428 FILLER_0_18_253
*429 FILLER_0_18_265
*430 FILLER_0_18_27
*431 FILLER_0_18_277
*432 FILLER_0_18_289
*433 FILLER_0_18_29
*434 FILLER_0_18_3
*435 FILLER_0_18_301
*436 FILLER_0_18_307
*437 FILLER_0_18_309
*438 FILLER_0_18_321
*439 FILLER_0_18_333
*440 FILLER_0_18_41
*441 FILLER_0_18_53
*442 FILLER_0_18_65
*443 FILLER_0_18_77
*444 FILLER_0_18_83
*445 FILLER_0_18_85
*446 FILLER_0_18_97
*447 FILLER_0_19_105
*448 FILLER_0_19_111
*449 FILLER_0_19_113
*450 FILLER_0_19_125
*451 FILLER_0_19_137
*452 FILLER_0_19_149
*453 FILLER_0_19_15
*454 FILLER_0_19_161
*455 FILLER_0_19_167
*456 FILLER_0_19_169
*457 FILLER_0_19_181
*458 FILLER_0_19_193
*459 FILLER_0_19_205
*460 FILLER_0_19_217
*461 FILLER_0_19_223
*462 FILLER_0_19_225
*463 FILLER_0_19_237
*464 FILLER_0_19_249
*465 FILLER_0_19_261
*466 FILLER_0_19_27
*467 FILLER_0_19_273
*468 FILLER_0_19_279
*469 FILLER_0_19_281
*470 FILLER_0_19_293
*471 FILLER_0_19_3
*472 FILLER_0_19_305
*473 FILLER_0_19_317
*474 FILLER_0_19_329
*475 FILLER_0_19_39
*476 FILLER_0_19_51
*477 FILLER_0_19_55
*478 FILLER_0_19_57
*479 FILLER_0_19_69
*480 FILLER_0_19_81
*481 FILLER_0_19_93
*482 FILLER_0_1_105
*483 FILLER_0_1_111
*484 FILLER_0_1_113
*485 FILLER_0_1_125
*486 FILLER_0_1_137
*487 FILLER_0_1_149
*488 FILLER_0_1_15
*489 FILLER_0_1_161
*490 FILLER_0_1_167
*491 FILLER_0_1_169
*492 FILLER_0_1_181
*493 FILLER_0_1_193
*494 FILLER_0_1_205
*495 FILLER_0_1_217
*496 FILLER_0_1_223
*497 FILLER_0_1_225
*498 FILLER_0_1_237
*499 FILLER_0_1_249
*500 FILLER_0_1_261
*501 FILLER_0_1_27
*502 FILLER_0_1_273
*503 FILLER_0_1_279
*504 FILLER_0_1_281
*505 FILLER_0_1_293
*506 FILLER_0_1_3
*507 FILLER_0_1_305
*508 FILLER_0_1_317
*509 FILLER_0_1_329
*510 FILLER_0_1_39
*511 FILLER_0_1_51
*512 FILLER_0_1_55
*513 FILLER_0_1_57
*514 FILLER_0_1_69
*515 FILLER_0_1_81
*516 FILLER_0_1_93
*517 FILLER_0_20_109
*518 FILLER_0_20_121
*519 FILLER_0_20_133
*520 FILLER_0_20_139
*521 FILLER_0_20_141
*522 FILLER_0_20_15
*523 FILLER_0_20_153
*524 FILLER_0_20_165
*525 FILLER_0_20_177
*526 FILLER_0_20_189
*527 FILLER_0_20_195
*528 FILLER_0_20_197
*529 FILLER_0_20_209
*530 FILLER_0_20_221
*531 FILLER_0_20_233
*532 FILLER_0_20_245
*533 FILLER_0_20_251
*534 FILLER_0_20_253
*535 FILLER_0_20_265
*536 FILLER_0_20_27
*537 FILLER_0_20_277
*538 FILLER_0_20_289
*539 FILLER_0_20_29
*540 FILLER_0_20_3
*541 FILLER_0_20_301
*542 FILLER_0_20_307
*543 FILLER_0_20_309
*544 FILLER_0_20_321
*545 FILLER_0_20_333
*546 FILLER_0_20_41
*547 FILLER_0_20_53
*548 FILLER_0_20_65
*549 FILLER_0_20_77
*550 FILLER_0_20_83
*551 FILLER_0_20_85
*552 FILLER_0_20_97
*553 FILLER_0_21_105
*554 FILLER_0_21_111
*555 FILLER_0_21_113
*556 FILLER_0_21_125
*557 FILLER_0_21_137
*558 FILLER_0_21_149
*559 FILLER_0_21_15
*560 FILLER_0_21_161
*561 FILLER_0_21_167
*562 FILLER_0_21_169
*563 FILLER_0_21_181
*564 FILLER_0_21_193
*565 FILLER_0_21_205
*566 FILLER_0_21_217
*567 FILLER_0_21_223
*568 FILLER_0_21_225
*569 FILLER_0_21_237
*570 FILLER_0_21_249
*571 FILLER_0_21_261
*572 FILLER_0_21_27
*573 FILLER_0_21_273
*574 FILLER_0_21_279
*575 FILLER_0_21_281
*576 FILLER_0_21_293
*577 FILLER_0_21_3
*578 FILLER_0_21_305
*579 FILLER_0_21_317
*580 FILLER_0_21_329
*581 FILLER_0_21_39
*582 FILLER_0_21_51
*583 FILLER_0_21_55
*584 FILLER_0_21_57
*585 FILLER_0_21_69
*586 FILLER_0_21_81
*587 FILLER_0_21_93
*588 FILLER_0_22_109
*589 FILLER_0_22_121
*590 FILLER_0_22_133
*591 FILLER_0_22_139
*592 FILLER_0_22_141
*593 FILLER_0_22_15
*594 FILLER_0_22_153
*595 FILLER_0_22_165
*596 FILLER_0_22_177
*597 FILLER_0_22_189
*598 FILLER_0_22_195
*599 FILLER_0_22_197
*600 FILLER_0_22_209
*601 FILLER_0_22_221
*602 FILLER_0_22_233
*603 FILLER_0_22_245
*604 FILLER_0_22_251
*605 FILLER_0_22_253
*606 FILLER_0_22_265
*607 FILLER_0_22_27
*608 FILLER_0_22_277
*609 FILLER_0_22_289
*610 FILLER_0_22_29
*611 FILLER_0_22_3
*612 FILLER_0_22_301
*613 FILLER_0_22_307
*614 FILLER_0_22_309
*615 FILLER_0_22_321
*616 FILLER_0_22_333
*617 FILLER_0_22_41
*618 FILLER_0_22_53
*619 FILLER_0_22_65
*620 FILLER_0_22_77
*621 FILLER_0_22_83
*622 FILLER_0_22_85
*623 FILLER_0_22_97
*624 FILLER_0_23_105
*625 FILLER_0_23_111
*626 FILLER_0_23_113
*627 FILLER_0_23_125
*628 FILLER_0_23_137
*629 FILLER_0_23_149
*630 FILLER_0_23_15
*631 FILLER_0_23_161
*632 FILLER_0_23_167
*633 FILLER_0_23_169
*634 FILLER_0_23_181
*635 FILLER_0_23_193
*636 FILLER_0_23_205
*637 FILLER_0_23_217
*638 FILLER_0_23_223
*639 FILLER_0_23_225
*640 FILLER_0_23_237
*641 FILLER_0_23_249
*642 FILLER_0_23_261
*643 FILLER_0_23_27
*644 FILLER_0_23_273
*645 FILLER_0_23_279
*646 FILLER_0_23_281
*647 FILLER_0_23_293
*648 FILLER_0_23_3
*649 FILLER_0_23_305
*650 FILLER_0_23_317
*651 FILLER_0_23_329
*652 FILLER_0_23_39
*653 FILLER_0_23_51
*654 FILLER_0_23_55
*655 FILLER_0_23_57
*656 FILLER_0_23_69
*657 FILLER_0_23_81
*658 FILLER_0_23_93
*659 FILLER_0_24_109
*660 FILLER_0_24_121
*661 FILLER_0_24_133
*662 FILLER_0_24_139
*663 FILLER_0_24_141
*664 FILLER_0_24_15
*665 FILLER_0_24_153
*666 FILLER_0_24_165
*667 FILLER_0_24_177
*668 FILLER_0_24_189
*669 FILLER_0_24_195
*670 FILLER_0_24_197
*671 FILLER_0_24_209
*672 FILLER_0_24_221
*673 FILLER_0_24_233
*674 FILLER_0_24_245
*675 FILLER_0_24_251
*676 FILLER_0_24_253
*677 FILLER_0_24_265
*678 FILLER_0_24_27
*679 FILLER_0_24_277
*680 FILLER_0_24_289
*681 FILLER_0_24_29
*682 FILLER_0_24_3
*683 FILLER_0_24_301
*684 FILLER_0_24_307
*685 FILLER_0_24_309
*686 FILLER_0_24_321
*687 FILLER_0_24_333
*688 FILLER_0_24_41
*689 FILLER_0_24_53
*690 FILLER_0_24_65
*691 FILLER_0_24_77
*692 FILLER_0_24_83
*693 FILLER_0_24_85
*694 FILLER_0_24_97
*695 FILLER_0_25_105
*696 FILLER_0_25_111
*697 FILLER_0_25_113
*698 FILLER_0_25_125
*699 FILLER_0_25_137
*700 FILLER_0_25_149
*701 FILLER_0_25_15
*702 FILLER_0_25_161
*703 FILLER_0_25_167
*704 FILLER_0_25_169
*705 FILLER_0_25_181
*706 FILLER_0_25_193
*707 FILLER_0_25_205
*708 FILLER_0_25_217
*709 FILLER_0_25_223
*710 FILLER_0_25_225
*711 FILLER_0_25_237
*712 FILLER_0_25_249
*713 FILLER_0_25_261
*714 FILLER_0_25_27
*715 FILLER_0_25_273
*716 FILLER_0_25_279
*717 FILLER_0_25_281
*718 FILLER_0_25_293
*719 FILLER_0_25_3
*720 FILLER_0_25_305
*721 FILLER_0_25_317
*722 FILLER_0_25_329
*723 FILLER_0_25_39
*724 FILLER_0_25_51
*725 FILLER_0_25_55
*726 FILLER_0_25_57
*727 FILLER_0_25_69
*728 FILLER_0_25_81
*729 FILLER_0_25_93
*730 FILLER_0_26_109
*731 FILLER_0_26_121
*732 FILLER_0_26_133
*733 FILLER_0_26_139
*734 FILLER_0_26_141
*735 FILLER_0_26_15
*736 FILLER_0_26_153
*737 FILLER_0_26_165
*738 FILLER_0_26_177
*739 FILLER_0_26_189
*740 FILLER_0_26_195
*741 FILLER_0_26_197
*742 FILLER_0_26_209
*743 FILLER_0_26_221
*744 FILLER_0_26_233
*745 FILLER_0_26_245
*746 FILLER_0_26_251
*747 FILLER_0_26_253
*748 FILLER_0_26_265
*749 FILLER_0_26_27
*750 FILLER_0_26_277
*751 FILLER_0_26_289
*752 FILLER_0_26_29
*753 FILLER_0_26_3
*754 FILLER_0_26_301
*755 FILLER_0_26_307
*756 FILLER_0_26_309
*757 FILLER_0_26_321
*758 FILLER_0_26_333
*759 FILLER_0_26_41
*760 FILLER_0_26_53
*761 FILLER_0_26_65
*762 FILLER_0_26_77
*763 FILLER_0_26_83
*764 FILLER_0_26_85
*765 FILLER_0_26_97
*766 FILLER_0_27_105
*767 FILLER_0_27_111
*768 FILLER_0_27_113
*769 FILLER_0_27_125
*770 FILLER_0_27_137
*771 FILLER_0_27_149
*772 FILLER_0_27_15
*773 FILLER_0_27_161
*774 FILLER_0_27_167
*775 FILLER_0_27_169
*776 FILLER_0_27_181
*777 FILLER_0_27_193
*778 FILLER_0_27_205
*779 FILLER_0_27_217
*780 FILLER_0_27_223
*781 FILLER_0_27_225
*782 FILLER_0_27_237
*783 FILLER_0_27_249
*784 FILLER_0_27_261
*785 FILLER_0_27_27
*786 FILLER_0_27_273
*787 FILLER_0_27_279
*788 FILLER_0_27_281
*789 FILLER_0_27_293
*790 FILLER_0_27_3
*791 FILLER_0_27_305
*792 FILLER_0_27_317
*793 FILLER_0_27_329
*794 FILLER_0_27_39
*795 FILLER_0_27_51
*796 FILLER_0_27_55
*797 FILLER_0_27_57
*798 FILLER_0_27_69
*799 FILLER_0_27_81
*800 FILLER_0_27_93
*801 FILLER_0_28_109
*802 FILLER_0_28_121
*803 FILLER_0_28_133
*804 FILLER_0_28_139
*805 FILLER_0_28_141
*806 FILLER_0_28_15
*807 FILLER_0_28_153
*808 FILLER_0_28_165
*809 FILLER_0_28_177
*810 FILLER_0_28_189
*811 FILLER_0_28_195
*812 FILLER_0_28_197
*813 FILLER_0_28_209
*814 FILLER_0_28_221
*815 FILLER_0_28_233
*816 FILLER_0_28_245
*817 FILLER_0_28_251
*818 FILLER_0_28_253
*819 FILLER_0_28_265
*820 FILLER_0_28_27
*821 FILLER_0_28_277
*822 FILLER_0_28_289
*823 FILLER_0_28_29
*824 FILLER_0_28_3
*825 FILLER_0_28_301
*826 FILLER_0_28_307
*827 FILLER_0_28_309
*828 FILLER_0_28_321
*829 FILLER_0_28_333
*830 FILLER_0_28_41
*831 FILLER_0_28_53
*832 FILLER_0_28_65
*833 FILLER_0_28_77
*834 FILLER_0_28_83
*835 FILLER_0_28_85
*836 FILLER_0_28_97
*837 FILLER_0_29_105
*838 FILLER_0_29_111
*839 FILLER_0_29_113
*840 FILLER_0_29_125
*841 FILLER_0_29_137
*842 FILLER_0_29_149
*843 FILLER_0_29_15
*844 FILLER_0_29_161
*845 FILLER_0_29_167
*846 FILLER_0_29_169
*847 FILLER_0_29_181
*848 FILLER_0_29_193
*849 FILLER_0_29_205
*850 FILLER_0_29_217
*851 FILLER_0_29_223
*852 FILLER_0_29_225
*853 FILLER_0_29_237
*854 FILLER_0_29_249
*855 FILLER_0_29_261
*856 FILLER_0_29_27
*857 FILLER_0_29_273
*858 FILLER_0_29_279
*859 FILLER_0_29_281
*860 FILLER_0_29_293
*861 FILLER_0_29_3
*862 FILLER_0_29_305
*863 FILLER_0_29_317
*864 FILLER_0_29_329
*865 FILLER_0_29_39
*866 FILLER_0_29_51
*867 FILLER_0_29_55
*868 FILLER_0_29_57
*869 FILLER_0_29_69
*870 FILLER_0_29_81
*871 FILLER_0_29_93
*872 FILLER_0_2_109
*873 FILLER_0_2_121
*874 FILLER_0_2_133
*875 FILLER_0_2_139
*876 FILLER_0_2_141
*877 FILLER_0_2_15
*878 FILLER_0_2_153
*879 FILLER_0_2_165
*880 FILLER_0_2_177
*881 FILLER_0_2_189
*882 FILLER_0_2_195
*883 FILLER_0_2_197
*884 FILLER_0_2_209
*885 FILLER_0_2_221
*886 FILLER_0_2_233
*887 FILLER_0_2_245
*888 FILLER_0_2_251
*889 FILLER_0_2_253
*890 FILLER_0_2_265
*891 FILLER_0_2_27
*892 FILLER_0_2_277
*893 FILLER_0_2_289
*894 FILLER_0_2_29
*895 FILLER_0_2_3
*896 FILLER_0_2_301
*897 FILLER_0_2_307
*898 FILLER_0_2_309
*899 FILLER_0_2_321
*900 FILLER_0_2_333
*901 FILLER_0_2_41
*902 FILLER_0_2_53
*903 FILLER_0_2_65
*904 FILLER_0_2_77
*905 FILLER_0_2_83
*906 FILLER_0_2_85
*907 FILLER_0_2_97
*908 FILLER_0_30_109
*909 FILLER_0_30_121
*910 FILLER_0_30_133
*911 FILLER_0_30_139
*912 FILLER_0_30_141
*913 FILLER_0_30_15
*914 FILLER_0_30_153
*915 FILLER_0_30_165
*916 FILLER_0_30_177
*917 FILLER_0_30_189
*918 FILLER_0_30_195
*919 FILLER_0_30_197
*920 FILLER_0_30_209
*921 FILLER_0_30_221
*922 FILLER_0_30_233
*923 FILLER_0_30_245
*924 FILLER_0_30_251
*925 FILLER_0_30_253
*926 FILLER_0_30_265
*927 FILLER_0_30_27
*928 FILLER_0_30_277
*929 FILLER_0_30_289
*930 FILLER_0_30_29
*931 FILLER_0_30_3
*932 FILLER_0_30_301
*933 FILLER_0_30_307
*934 FILLER_0_30_309
*935 FILLER_0_30_321
*936 FILLER_0_30_333
*937 FILLER_0_30_41
*938 FILLER_0_30_53
*939 FILLER_0_30_65
*940 FILLER_0_30_77
*941 FILLER_0_30_83
*942 FILLER_0_30_85
*943 FILLER_0_30_97
*944 FILLER_0_31_105
*945 FILLER_0_31_111
*946 FILLER_0_31_113
*947 FILLER_0_31_125
*948 FILLER_0_31_137
*949 FILLER_0_31_149
*950 FILLER_0_31_15
*951 FILLER_0_31_161
*952 FILLER_0_31_167
*953 FILLER_0_31_169
*954 FILLER_0_31_181
*955 FILLER_0_31_193
*956 FILLER_0_31_205
*957 FILLER_0_31_217
*958 FILLER_0_31_223
*959 FILLER_0_31_225
*960 FILLER_0_31_237
*961 FILLER_0_31_249
*962 FILLER_0_31_261
*963 FILLER_0_31_27
*964 FILLER_0_31_273
*965 FILLER_0_31_279
*966 FILLER_0_31_281
*967 FILLER_0_31_293
*968 FILLER_0_31_3
*969 FILLER_0_31_305
*970 FILLER_0_31_317
*971 FILLER_0_31_329
*972 FILLER_0_31_39
*973 FILLER_0_31_51
*974 FILLER_0_31_55
*975 FILLER_0_31_57
*976 FILLER_0_31_69
*977 FILLER_0_31_81
*978 FILLER_0_31_93
*979 FILLER_0_32_109
*980 FILLER_0_32_121
*981 FILLER_0_32_133
*982 FILLER_0_32_139
*983 FILLER_0_32_141
*984 FILLER_0_32_15
*985 FILLER_0_32_153
*986 FILLER_0_32_165
*987 FILLER_0_32_177
*988 FILLER_0_32_189
*989 FILLER_0_32_195
*990 FILLER_0_32_197
*991 FILLER_0_32_209
*992 FILLER_0_32_221
*993 FILLER_0_32_233
*994 FILLER_0_32_245
*995 FILLER_0_32_251
*996 FILLER_0_32_253
*997 FILLER_0_32_265
*998 FILLER_0_32_27
*999 FILLER_0_32_277
*1000 FILLER_0_32_289
*1001 FILLER_0_32_29
*1002 FILLER_0_32_3
*1003 FILLER_0_32_301
*1004 FILLER_0_32_307
*1005 FILLER_0_32_309
*1006 FILLER_0_32_321
*1007 FILLER_0_32_333
*1008 FILLER_0_32_41
*1009 FILLER_0_32_53
*1010 FILLER_0_32_65
*1011 FILLER_0_32_77
*1012 FILLER_0_32_83
*1013 FILLER_0_32_85
*1014 FILLER_0_32_97
*1015 FILLER_0_33_105
*1016 FILLER_0_33_111
*1017 FILLER_0_33_113
*1018 FILLER_0_33_125
*1019 FILLER_0_33_137
*1020 FILLER_0_33_149
*1021 FILLER_0_33_15
*1022 FILLER_0_33_161
*1023 FILLER_0_33_167
*1024 FILLER_0_33_169
*1025 FILLER_0_33_174
*1026 FILLER_0_33_186
*1027 FILLER_0_33_190
*1028 FILLER_0_33_199
*1029 FILLER_0_33_211
*1030 FILLER_0_33_223
*1031 FILLER_0_33_225
*1032 FILLER_0_33_237
*1033 FILLER_0_33_249
*1034 FILLER_0_33_261
*1035 FILLER_0_33_27
*1036 FILLER_0_33_273
*1037 FILLER_0_33_279
*1038 FILLER_0_33_281
*1039 FILLER_0_33_293
*1040 FILLER_0_33_3
*1041 FILLER_0_33_305
*1042 FILLER_0_33_317
*1043 FILLER_0_33_329
*1044 FILLER_0_33_39
*1045 FILLER_0_33_51
*1046 FILLER_0_33_55
*1047 FILLER_0_33_57
*1048 FILLER_0_33_69
*1049 FILLER_0_33_81
*1050 FILLER_0_33_93
*1051 FILLER_0_34_109
*1052 FILLER_0_34_121
*1053 FILLER_0_34_130
*1054 FILLER_0_34_138
*1055 FILLER_0_34_15
*1056 FILLER_0_34_152
*1057 FILLER_0_34_172
*1058 FILLER_0_34_197
*1059 FILLER_0_34_215
*1060 FILLER_0_34_227
*1061 FILLER_0_34_239
*1062 FILLER_0_34_251
*1063 FILLER_0_34_253
*1064 FILLER_0_34_265
*1065 FILLER_0_34_27
*1066 FILLER_0_34_277
*1067 FILLER_0_34_289
*1068 FILLER_0_34_29
*1069 FILLER_0_34_3
*1070 FILLER_0_34_301
*1071 FILLER_0_34_307
*1072 FILLER_0_34_309
*1073 FILLER_0_34_321
*1074 FILLER_0_34_333
*1075 FILLER_0_34_41
*1076 FILLER_0_34_53
*1077 FILLER_0_34_65
*1078 FILLER_0_34_77
*1079 FILLER_0_34_83
*1080 FILLER_0_34_85
*1081 FILLER_0_34_97
*1082 FILLER_0_35_105
*1083 FILLER_0_35_111
*1084 FILLER_0_35_113
*1085 FILLER_0_35_121
*1086 FILLER_0_35_145
*1087 FILLER_0_35_15
*1088 FILLER_0_35_185
*1089 FILLER_0_35_221
*1090 FILLER_0_35_225
*1091 FILLER_0_35_237
*1092 FILLER_0_35_249
*1093 FILLER_0_35_261
*1094 FILLER_0_35_27
*1095 FILLER_0_35_273
*1096 FILLER_0_35_279
*1097 FILLER_0_35_281
*1098 FILLER_0_35_293
*1099 FILLER_0_35_3
*1100 FILLER_0_35_305
*1101 FILLER_0_35_317
*1102 FILLER_0_35_329
*1103 FILLER_0_35_39
*1104 FILLER_0_35_51
*1105 FILLER_0_35_55
*1106 FILLER_0_35_57
*1107 FILLER_0_35_69
*1108 FILLER_0_35_81
*1109 FILLER_0_35_93
*1110 FILLER_0_36_109
*1111 FILLER_0_36_121
*1112 FILLER_0_36_127
*1113 FILLER_0_36_141
*1114 FILLER_0_36_15
*1115 FILLER_0_36_197
*1116 FILLER_0_36_224
*1117 FILLER_0_36_236
*1118 FILLER_0_36_248
*1119 FILLER_0_36_253
*1120 FILLER_0_36_265
*1121 FILLER_0_36_27
*1122 FILLER_0_36_277
*1123 FILLER_0_36_289
*1124 FILLER_0_36_29
*1125 FILLER_0_36_3
*1126 FILLER_0_36_301
*1127 FILLER_0_36_307
*1128 FILLER_0_36_309
*1129 FILLER_0_36_321
*1130 FILLER_0_36_333
*1131 FILLER_0_36_41
*1132 FILLER_0_36_53
*1133 FILLER_0_36_65
*1134 FILLER_0_36_77
*1135 FILLER_0_36_83
*1136 FILLER_0_36_85
*1137 FILLER_0_36_97
*1138 FILLER_0_37_105
*1139 FILLER_0_37_111
*1140 FILLER_0_37_113
*1141 FILLER_0_37_145
*1142 FILLER_0_37_15
*1143 FILLER_0_37_203
*1144 FILLER_0_37_207
*1145 FILLER_0_37_225
*1146 FILLER_0_37_237
*1147 FILLER_0_37_249
*1148 FILLER_0_37_261
*1149 FILLER_0_37_27
*1150 FILLER_0_37_273
*1151 FILLER_0_37_279
*1152 FILLER_0_37_281
*1153 FILLER_0_37_293
*1154 FILLER_0_37_3
*1155 FILLER_0_37_305
*1156 FILLER_0_37_317
*1157 FILLER_0_37_329
*1158 FILLER_0_37_39
*1159 FILLER_0_37_51
*1160 FILLER_0_37_55
*1161 FILLER_0_37_57
*1162 FILLER_0_37_69
*1163 FILLER_0_37_81
*1164 FILLER_0_37_93
*1165 FILLER_0_38_10
*1166 FILLER_0_38_102
*1167 FILLER_0_38_106
*1168 FILLER_0_38_110
*1169 FILLER_0_38_113
*1170 FILLER_0_38_118
*1171 FILLER_0_38_122
*1172 FILLER_0_38_126
*1173 FILLER_0_38_14
*1174 FILLER_0_38_158
*1175 FILLER_0_38_179
*1176 FILLER_0_38_18
*1177 FILLER_0_38_187
*1178 FILLER_0_38_197
*1179 FILLER_0_38_22
*1180 FILLER_0_38_222
*1181 FILLER_0_38_231
*1182 FILLER_0_38_243
*1183 FILLER_0_38_251
*1184 FILLER_0_38_253
*1185 FILLER_0_38_265
*1186 FILLER_0_38_277
*1187 FILLER_0_38_281
*1188 FILLER_0_38_293
*1189 FILLER_0_38_305
*1190 FILLER_0_38_309
*1191 FILLER_0_38_32
*1192 FILLER_0_38_321
*1193 FILLER_0_38_327
*1194 FILLER_0_38_38
*1195 FILLER_0_38_42
*1196 FILLER_0_38_46
*1197 FILLER_0_38_50
*1198 FILLER_0_38_54
*1199 FILLER_0_38_57
*1200 FILLER_0_38_6
*1201 FILLER_0_38_62
*1202 FILLER_0_38_66
*1203 FILLER_0_38_70
*1204 FILLER_0_38_74
*1205 FILLER_0_38_78
*1206 FILLER_0_38_88
*1207 FILLER_0_38_94
*1208 FILLER_0_38_98
*1209 FILLER_0_3_105
*1210 FILLER_0_3_111
*1211 FILLER_0_3_113
*1212 FILLER_0_3_125
*1213 FILLER_0_3_137
*1214 FILLER_0_3_149
*1215 FILLER_0_3_15
*1216 FILLER_0_3_161
*1217 FILLER_0_3_167
*1218 FILLER_0_3_169
*1219 FILLER_0_3_181
*1220 FILLER_0_3_193
*1221 FILLER_0_3_205
*1222 FILLER_0_3_217
*1223 FILLER_0_3_223
*1224 FILLER_0_3_225
*1225 FILLER_0_3_237
*1226 FILLER_0_3_249
*1227 FILLER_0_3_261
*1228 FILLER_0_3_27
*1229 FILLER_0_3_273
*1230 FILLER_0_3_279
*1231 FILLER_0_3_281
*1232 FILLER_0_3_293
*1233 FILLER_0_3_3
*1234 FILLER_0_3_305
*1235 FILLER_0_3_317
*1236 FILLER_0_3_329
*1237 FILLER_0_3_39
*1238 FILLER_0_3_51
*1239 FILLER_0_3_55
*1240 FILLER_0_3_57
*1241 FILLER_0_3_69
*1242 FILLER_0_3_81
*1243 FILLER_0_3_93
*1244 FILLER_0_4_109
*1245 FILLER_0_4_121
*1246 FILLER_0_4_133
*1247 FILLER_0_4_139
*1248 FILLER_0_4_141
*1249 FILLER_0_4_15
*1250 FILLER_0_4_153
*1251 FILLER_0_4_165
*1252 FILLER_0_4_177
*1253 FILLER_0_4_189
*1254 FILLER_0_4_195
*1255 FILLER_0_4_197
*1256 FILLER_0_4_209
*1257 FILLER_0_4_221
*1258 FILLER_0_4_233
*1259 FILLER_0_4_245
*1260 FILLER_0_4_251
*1261 FILLER_0_4_253
*1262 FILLER_0_4_265
*1263 FILLER_0_4_27
*1264 FILLER_0_4_277
*1265 FILLER_0_4_289
*1266 FILLER_0_4_29
*1267 FILLER_0_4_3
*1268 FILLER_0_4_301
*1269 FILLER_0_4_307
*1270 FILLER_0_4_309
*1271 FILLER_0_4_321
*1272 FILLER_0_4_333
*1273 FILLER_0_4_41
*1274 FILLER_0_4_53
*1275 FILLER_0_4_65
*1276 FILLER_0_4_77
*1277 FILLER_0_4_83
*1278 FILLER_0_4_85
*1279 FILLER_0_4_97
*1280 FILLER_0_5_105
*1281 FILLER_0_5_111
*1282 FILLER_0_5_113
*1283 FILLER_0_5_125
*1284 FILLER_0_5_137
*1285 FILLER_0_5_149
*1286 FILLER_0_5_15
*1287 FILLER_0_5_161
*1288 FILLER_0_5_167
*1289 FILLER_0_5_169
*1290 FILLER_0_5_181
*1291 FILLER_0_5_193
*1292 FILLER_0_5_205
*1293 FILLER_0_5_217
*1294 FILLER_0_5_223
*1295 FILLER_0_5_225
*1296 FILLER_0_5_237
*1297 FILLER_0_5_249
*1298 FILLER_0_5_261
*1299 FILLER_0_5_27
*1300 FILLER_0_5_273
*1301 FILLER_0_5_279
*1302 FILLER_0_5_281
*1303 FILLER_0_5_293
*1304 FILLER_0_5_3
*1305 FILLER_0_5_305
*1306 FILLER_0_5_317
*1307 FILLER_0_5_329
*1308 FILLER_0_5_39
*1309 FILLER_0_5_51
*1310 FILLER_0_5_55
*1311 FILLER_0_5_57
*1312 FILLER_0_5_69
*1313 FILLER_0_5_81
*1314 FILLER_0_5_93
*1315 FILLER_0_6_109
*1316 FILLER_0_6_121
*1317 FILLER_0_6_133
*1318 FILLER_0_6_139
*1319 FILLER_0_6_141
*1320 FILLER_0_6_15
*1321 FILLER_0_6_153
*1322 FILLER_0_6_165
*1323 FILLER_0_6_177
*1324 FILLER_0_6_189
*1325 FILLER_0_6_195
*1326 FILLER_0_6_197
*1327 FILLER_0_6_209
*1328 FILLER_0_6_221
*1329 FILLER_0_6_233
*1330 FILLER_0_6_245
*1331 FILLER_0_6_251
*1332 FILLER_0_6_253
*1333 FILLER_0_6_265
*1334 FILLER_0_6_27
*1335 FILLER_0_6_277
*1336 FILLER_0_6_289
*1337 FILLER_0_6_29
*1338 FILLER_0_6_3
*1339 FILLER_0_6_301
*1340 FILLER_0_6_307
*1341 FILLER_0_6_309
*1342 FILLER_0_6_321
*1343 FILLER_0_6_333
*1344 FILLER_0_6_41
*1345 FILLER_0_6_53
*1346 FILLER_0_6_65
*1347 FILLER_0_6_77
*1348 FILLER_0_6_83
*1349 FILLER_0_6_85
*1350 FILLER_0_6_97
*1351 FILLER_0_7_105
*1352 FILLER_0_7_111
*1353 FILLER_0_7_113
*1354 FILLER_0_7_125
*1355 FILLER_0_7_137
*1356 FILLER_0_7_149
*1357 FILLER_0_7_15
*1358 FILLER_0_7_161
*1359 FILLER_0_7_167
*1360 FILLER_0_7_169
*1361 FILLER_0_7_181
*1362 FILLER_0_7_193
*1363 FILLER_0_7_205
*1364 FILLER_0_7_217
*1365 FILLER_0_7_223
*1366 FILLER_0_7_225
*1367 FILLER_0_7_237
*1368 FILLER_0_7_249
*1369 FILLER_0_7_261
*1370 FILLER_0_7_27
*1371 FILLER_0_7_273
*1372 FILLER_0_7_279
*1373 FILLER_0_7_281
*1374 FILLER_0_7_293
*1375 FILLER_0_7_3
*1376 FILLER_0_7_305
*1377 FILLER_0_7_317
*1378 FILLER_0_7_329
*1379 FILLER_0_7_39
*1380 FILLER_0_7_51
*1381 FILLER_0_7_55
*1382 FILLER_0_7_57
*1383 FILLER_0_7_69
*1384 FILLER_0_7_81
*1385 FILLER_0_7_93
*1386 FILLER_0_8_109
*1387 FILLER_0_8_121
*1388 FILLER_0_8_133
*1389 FILLER_0_8_139
*1390 FILLER_0_8_141
*1391 FILLER_0_8_15
*1392 FILLER_0_8_153
*1393 FILLER_0_8_165
*1394 FILLER_0_8_177
*1395 FILLER_0_8_189
*1396 FILLER_0_8_195
*1397 FILLER_0_8_197
*1398 FILLER_0_8_209
*1399 FILLER_0_8_221
*1400 FILLER_0_8_233
*1401 FILLER_0_8_245
*1402 FILLER_0_8_251
*1403 FILLER_0_8_253
*1404 FILLER_0_8_265
*1405 FILLER_0_8_27
*1406 FILLER_0_8_277
*1407 FILLER_0_8_289
*1408 FILLER_0_8_29
*1409 FILLER_0_8_3
*1410 FILLER_0_8_301
*1411 FILLER_0_8_307
*1412 FILLER_0_8_309
*1413 FILLER_0_8_321
*1414 FILLER_0_8_333
*1415 FILLER_0_8_41
*1416 FILLER_0_8_53
*1417 FILLER_0_8_65
*1418 FILLER_0_8_77
*1419 FILLER_0_8_83
*1420 FILLER_0_8_85
*1421 FILLER_0_8_97
*1422 FILLER_0_9_105
*1423 FILLER_0_9_111
*1424 FILLER_0_9_113
*1425 FILLER_0_9_125
*1426 FILLER_0_9_137
*1427 FILLER_0_9_149
*1428 FILLER_0_9_15
*1429 FILLER_0_9_161
*1430 FILLER_0_9_167
*1431 FILLER_0_9_169
*1432 FILLER_0_9_181
*1433 FILLER_0_9_193
*1434 FILLER_0_9_205
*1435 FILLER_0_9_217
*1436 FILLER_0_9_223
*1437 FILLER_0_9_225
*1438 FILLER_0_9_237
*1439 FILLER_0_9_249
*1440 FILLER_0_9_261
*1441 FILLER_0_9_27
*1442 FILLER_0_9_273
*1443 FILLER_0_9_279
*1444 FILLER_0_9_281
*1445 FILLER_0_9_293
*1446 FILLER_0_9_3
*1447 FILLER_0_9_305
*1448 FILLER_0_9_317
*1449 FILLER_0_9_329
*1450 FILLER_0_9_39
*1451 FILLER_0_9_51
*1452 FILLER_0_9_55
*1453 FILLER_0_9_57
*1454 FILLER_0_9_69
*1455 FILLER_0_9_81
*1456 FILLER_0_9_93
*1457 PHY_EDGE_ROW_0_Left_39
*1458 PHY_EDGE_ROW_0_Right_0
*1459 PHY_EDGE_ROW_10_Left_49
*1460 PHY_EDGE_ROW_10_Right_10
*1461 PHY_EDGE_ROW_11_Left_50
*1462 PHY_EDGE_ROW_11_Right_11
*1463 PHY_EDGE_ROW_12_Left_51
*1464 PHY_EDGE_ROW_12_Right_12
*1465 PHY_EDGE_ROW_13_Left_52
*1466 PHY_EDGE_ROW_13_Right_13
*1467 PHY_EDGE_ROW_14_Left_53