*SPEF "ieee 1481-1999"
*DESIGN "tt_um_shivam"
*DATE "13:42:37 Thursday April 11, 2024"
*VENDOR "The OpenROAD Project"
*PROGRAM "OpenROAD"
*VERSION "0889970d1790a2617e69f253221b8bd7626e51dc"
*DESIGN_FLOW "NAME_SCOPE LOCAL" "PIN_CAP NONE"
*DIVIDER /
*DELIMITER :
*BUS_DELIMITER []
*T_UNIT 1 NS
*C_UNIT 1 PF
*R_UNIT 1 OHM
*L_UNIT 1 HENRY

*NAME_MAP
*3 clk
*4 ena
*5 rst_n
*6 ui_in[0]
*7 ui_in[1]
*8 ui_in[2]
*9 ui_in[3]
*10 ui_in[4]
*11 ui_in[5]
*12 ui_in[6]
*13 ui_in[7]
*14 uio_in[0]
*15 uio_in[1]
*16 uio_in[2]
*17 uio_in[3]
*18 uio_in[4]
*19 uio_in[5]
*20 uio_in[6]
*21 uio_in[7]
*22 net3
*23 net4
*24 net5
*25 net6
*26 net7
*27 net8
*28 net9
*29 net10
*30 net11
*31 net12
*32 net13
*33 net14
*34 net15
*35 net16
*36 net17
*37 net18
*38 uo_out[0]
*39 net19
*40 net20
*41 net21
*42 net22
*43 net23
*44 net24
*45 net25
*46 DUTY_CYCLE\[0\]
*47 DUTY_CYCLE\[1\]
*48 DUTY_CYCLE\[2\]
*49 DUTY_CYCLE\[3\]
*50 PWM_DFF1\.Q
*51 PWM_DFF2\.Q
*52 PWM_DFF3\.Q
*53 PWM_DFF4\.Q
*54 PWM_OUT
*55 _000_
*56 _001_
*57 _002_
*58 _003_
*59 _004_
*60 _005_
*61 _006_
*62 _007_
*63 _008_
*64 _009_
*65 _010_
*66 _038_
*67 _039_
*68 _040_
*69 _041_
*70 _042_
*71 _043_
*72 _044_
*73 _045_
*74 _046_
*75 _047_
*76 _048_
*77 _049_
*78 _050_
*79 _051_
*80 _052_
*81 _053_
*82 _054_
*83 _055_
*84 _056_
*85 _057_
*86 _058_
*87 _059_
*88 _060_
*89 _061_
*90 _062_
*91 _063_
*92 _064_
*93 _065_
*94 _066_
*95 _067_
*96 _068_
*97 _069_
*98 _070_
*99 _071_
*100 _072_
*101 _073_
*102 _074_
*103 _075_
*104 _076_
*105 _077_
*106 _078_
*107 _079_
*108 _080_
*109 _081_
*110 _082_
*111 _083_
*112 _084_
*113 _085_
*114 clknet_0_clk
*115 clknet_2_0__leaf_clk
*116 clknet_2_1__leaf_clk
*117 clknet_2_2__leaf_clk
*118 clknet_2_3__leaf_clk
*119 counter_PWM\[0\]
*120 counter_PWM\[1\]
*121 counter_PWM\[2\]
*122 counter_PWM\[3\]
*123 counter_debounce\[0\]
*124 counter_debounce\[10\]
*125 counter_debounce\[11\]
*126 counter_debounce\[12\]
*127 counter_debounce\[13\]
*128 counter_debounce\[14\]
*129 counter_debounce\[15\]
*130 counter_debounce\[16\]
*131 counter_debounce\[17\]
*132 counter_debounce\[18\]
*133 counter_debounce\[19\]
*134 counter_debounce\[1\]
*135 counter_debounce\[20\]
*136 counter_debounce\[21\]
*137 counter_debounce\[22\]
*138 counter_debounce\[23\]
*139 counter_debounce\[24\]
*140 counter_debounce\[25\]
*141 counter_debounce\[26\]
*142 counter_debounce\[27\]
*143 counter_debounce\[2\]
*144 counter_debounce\[3\]
*145 counter_debounce\[4\]
*146 counter_debounce\[5\]
*147 counter_debounce\[6\]
*148 counter_debounce\[7\]
*149 counter_debounce\[8\]
*150 counter_debounce\[9\]
*151 net1
*152 net2
*153 net26
*154 net27
*155 net28
*156 net29
*157 net30
*158 net31
*159 net32
*160 net33
*161 net34
*162 net35
*163 net36
*164 net37
*165 net38
*166 net39
*167 net40
*168 net41
*169 net42
*170 net43
*171 net44
*172 net45
*173 net46
*174 net47
*175 net48
*176 net49
*177 net50
*178 net51
*179 net52
*180 net53
*181 net54
*182 net55
*183 net56
*184 net57
*185 net58
*186 net59
*187 net60
*188 net61
*189 net62
*190 net63
*191 net64
*192 net65
*193 net66
*194 net67
*195 FILLER_0_0_109
*196 FILLER_0_0_113
*197 FILLER_0_0_125
*198 FILLER_0_0_137
*199 FILLER_0_0_141
*200 FILLER_0_0_15
*201 FILLER_0_0_153
*202 FILLER_0_0_165
*203 FILLER_0_0_169
*204 FILLER_0_0_181
*205 FILLER_0_0_193
*206 FILLER_0_0_197
*207 FILLER_0_0_209
*208 FILLER_0_0_221
*209 FILLER_0_0_225
*210 FILLER_0_0_237
*211 FILLER_0_0_249
*212 FILLER_0_0_253
*213 FILLER_0_0_265
*214 FILLER_0_0_27
*215 FILLER_0_0_277
*216 FILLER_0_0_281
*217 FILLER_0_0_29
*218 FILLER_0_0_293
*219 FILLER_0_0_3
*220 FILLER_0_0_305
*221 FILLER_0_0_309
*222 FILLER_0_0_321
*223 FILLER_0_0_333
*224 FILLER_0_0_41
*225 FILLER_0_0_53
*226 FILLER_0_0_57
*227 FILLER_0_0_69
*228 FILLER_0_0_81
*229 FILLER_0_0_85
*230 FILLER_0_0_97
*231 FILLER_0_10_109
*232 FILLER_0_10_121
*233 FILLER_0_10_133
*234 FILLER_0_10_139
*235 FILLER_0_10_141
*236 FILLER_0_10_15
*237 FILLER_0_10_153
*238 FILLER_0_10_165
*239 FILLER_0_10_177
*240 FILLER_0_10_189
*241 FILLER_0_10_195
*242 FILLER_0_10_197
*243 FILLER_0_10_209
*244 FILLER_0_10_221
*245 FILLER_0_10_233
*246 FILLER_0_10_245
*247 FILLER_0_10_251
*248 FILLER_0_10_253
*249 FILLER_0_10_265
*250 FILLER_0_10_27
*251 FILLER_0_10_277
*252 FILLER_0_10_289
*253 FILLER_0_10_29
*254 FILLER_0_10_3
*255 FILLER_0_10_301
*256 FILLER_0_10_307
*257 FILLER_0_10_309
*258 FILLER_0_10_321
*259 FILLER_0_10_333
*260 FILLER_0_10_41
*261 FILLER_0_10_53
*262 FILLER_0_10_65
*263 FILLER_0_10_77
*264 FILLER_0_10_83
*265 FILLER_0_10_85
*266 FILLER_0_10_97
*267 FILLER_0_11_105
*268 FILLER_0_11_111
*269 FILLER_0_11_113
*270 FILLER_0_11_125
*271 FILLER_0_11_137
*272 FILLER_0_11_149
*273 FILLER_0_11_15
*274 FILLER_0_11_161
*275 FILLER_0_11_167
*276 FILLER_0_11_169
*277 FILLER_0_11_181
*278 FILLER_0_11_193
*279 FILLER_0_11_205
*280 FILLER_0_11_217
*281 FILLER_0_11_223
*282 FILLER_0_11_225
*283 FILLER_0_11_237
*284 FILLER_0_11_249
*285 FILLER_0_11_261
*286 FILLER_0_11_27
*287 FILLER_0_11_273
*288 FILLER_0_11_279
*289 FILLER_0_11_281
*290 FILLER_0_11_293
*291 FILLER_0_11_3
*292 FILLER_0_11_305
*293 FILLER_0_11_317
*294 FILLER_0_11_329
*295 FILLER_0_11_39
*296 FILLER_0_11_51
*297 FILLER_0_11_55
*298 FILLER_0_11_57
*299 FILLER_0_11_69
*300 FILLER_0_11_81
*301 FILLER_0_11_93
*302 FILLER_0_12_109
*303 FILLER_0_12_121
*304 FILLER_0_12_133
*305 FILLER_0_12_139
*306 FILLER_0_12_141
*307 FILLER_0_12_15
*308 FILLER_0_12_153
*309 FILLER_0_12_165
*310 FILLER_0_12_177
*311 FILLER_0_12_189
*312 FILLER_0_12_195
*313 FILLER_0_12_197
*314 FILLER_0_12_209
*315 FILLER_0_12_221
*316 FILLER_0_12_233
*317 FILLER_0_12_245
*318 FILLER_0_12_251
*319 FILLER_0_12_253
*320 FILLER_0_12_265
*321 FILLER_0_12_27
*322 FILLER_0_12_277
*323 FILLER_0_12_289
*324 FILLER_0_12_29
*325 FILLER_0_12_3
*326 FILLER_0_12_301
*327 FILLER_0_12_307
*328 FILLER_0_12_309
*329 FILLER_0_12_321
*330 FILLER_0_12_333
*331 FILLER_0_12_41
*332 FILLER_0_12_53
*333 FILLER_0_12_65
*334 FILLER_0_12_77
*335 FILLER_0_12_83
*336 FILLER_0_12_85
*337 FILLER_0_12_97
*338 FILLER_0_13_105
*339 FILLER_0_13_111
*340 FILLER_0_13_113
*341 FILLER_0_13_125
*342 FILLER_0_13_137
*343 FILLER_0_13_149
*344 FILLER_0_13_15
*345 FILLER_0_13_161
*346 FILLER_0_13_167
*347 FILLER_0_13_169
*348 FILLER_0_13_181
*349 FILLER_0_13_193
*350 FILLER_0_13_205
*351 FILLER_0_13_217
*352 FILLER_0_13_223
*353 FILLER_0_13_225
*354 FILLER_0_13_237
*355 FILLER_0_13_249
*356 FILLER_0_13_261
*357 FILLER_0_13_27
*358 FILLER_0_13_273
*359 FILLER_0_13_279
*360 FILLER_0_13_281
*361 FILLER_0_13_293
*362 FILLER_0_13_3
*363 FILLER_0_13_305
*364 FILLER_0_13_317
*365 FILLER_0_13_329
*366 FILLER_0_13_39
*367 FILLER_0_13_51
*368 FILLER_0_13_55
*369 FILLER_0_13_57
*370 FILLER_0_13_69
*371 FILLER_0_13_81
*372 FILLER_0_13_93
*373 FILLER_0_14_109
*374 FILLER_0_14_121
*375 FILLER_0_14_133
*376 FILLER_0_14_139
*377 FILLER_0_14_141
*378 FILLER_0_14_15
*379 FILLER_0_14_153
*380 FILLER_0_14_165
*381 FILLER_0_14_177
*382 FILLER_0_14_189
*383 FILLER_0_14_195
*384 FILLER_0_14_197
*385 FILLER_0_14_209
*386 FILLER_0_14_221
*387 FILLER_0_14_233
*388 FILLER_0_14_245
*389 FILLER_0_14_251
*390 FILLER_0_14_253
*391 FILLER_0_14_265
*392 FILLER_0_14_27
*393 FILLER_0_14_277
*394 FILLER_0_14_289
*395 FILLER_0_14_29
*396 FILLER_0_14_3
*397 FILLER_0_14_301
*398 FILLER_0_14_307
*399 FILLER_0_14_309
*400 FILLER_0_14_321
*401 FILLER_0_14_333
*402 FILLER_0_14_41
*403 FILLER_0_14_53
*404 FILLER_0_14_65
*405 FILLER_0_14_77
*406 FILLER_0_14_83
*407 FILLER_0_14_85
*408 FILLER_0_14_97
*409 FILLER_0_15_105
*410 FILLER_0_15_111
*411 FILLER_0_15_113
*412 FILLER_0_15_125
*413 FILLER_0_15_137
*414 FILLER_0_15_149
*415 FILLER_0_15_15
*416 FILLER_0_15_161
*417 FILLER_0_15_167
*418 FILLER_0_15_169
*419 FILLER_0_15_181
*420 FILLER_0_15_193
*421 FILLER_0_15_205
*422 FILLER_0_15_217
*423 FILLER_0_15_223
*424 FILLER_0_15_225
*425 FILLER_0_15_237
*426 FILLER_0_15_249
*427 FILLER_0_15_261
*428 FILLER_0_15_27
*429 FILLER_0_15_273
*430 FILLER_0_15_279
*431 FILLER_0_15_281
*432 FILLER_0_15_293
*433 FILLER_0_15_3
*434 FILLER_0_15_305
*435 FILLER_0_15_317
*436 FILLER_0_15_329
*437 FILLER_0_15_39
*438 FILLER_0_15_51
*439 FILLER_0_15_55
*440 FILLER_0_15_57
*441 FILLER_0_15_69
*442 FILLER_0_15_81
*443 FILLER_0_15_93
*444 FILLER_0_16_109
*445 FILLER_0_16_121
*446 FILLER_0_16_133
*447 FILLER_0_16_139
*448 FILLER_0_16_141
*449 FILLER_0_16_15
*450 FILLER_0_16_153
*451 FILLER_0_16_165
*452 FILLER_0_16_177
*453 FILLER_0_16_189
*454 FILLER_0_16_195
*455 FILLER_0_16_197
*456 FILLER_0_16_209
*457 FILLER_0_16_221
*458 FILLER_0_16_233
*459 FILLER_0_16_245
*460 FILLER_0_16_251
*461 FILLER_0_16_253
*462 FILLER_0_16_265
*463 FILLER_0_16_27
*464 FILLER_0_16_277
*465 FILLER_0_16_289
*466 FILLER_0_16_29
*467 FILLER_0_16_3
*468 FILLER_0_16_301
*469 FILLER_0_16_307
*470 FILLER_0_16_309
*471 FILLER_0_16_321
*472 FILLER_0_16_333
*473 FILLER_0_16_41
*474 FILLER_0_16_53
*475 FILLER_0_16_65
*476 FILLER_0_16_77
*477 FILLER_0_16_83
*478 FILLER_0_16_85
*479 FILLER_0_16_97
*480 FILLER_0_17_105
*481 FILLER_0_17_111
*482 FILLER_0_17_113
*483 FILLER_0_17_125
*484 FILLER_0_17_137
*485 FILLER_0_17_149
*486 FILLER_0_17_15
*487 FILLER_0_17_161
*488 FILLER_0_17_167
*489 FILLER_0_17_169
*490 FILLER_0_17_181
*491 FILLER_0_17_193
*492 FILLER_0_17_205
*493 FILLER_0_17_217
*494 FILLER_0_17_223
*495 FILLER_0_17_225
*496 FILLER_0_17_237
*497 FILLER_0_17_249
*498 FILLER_0_17_261
*499 FILLER_0_17_27
*500 FILLER_0_17_273
*501 FILLER_0_17_279
*502 FILLER_0_17_281
*503 FILLER_0_17_293
*504 FILLER_0_17_3
*505 FILLER_0_17_305
*506 FILLER_0_17_317
*507 FILLER_0_17_329
*508 FILLER_0_17_39
*509 FILLER_0_17_51
*510 FILLER_0_17_55
*511 FILLER_0_17_57
*512 FILLER_0_17_69
*513 FILLER_0_17_81
*514 FILLER_0_17_93
*515 FILLER_0_18_109
*516 FILLER_0_18_121
*517 FILLER_0_18_133
*518 FILLER_0_18_139
*519 FILLER_0_18_141
*520 FILLER_0_18_15
*521 FILLER_0_18_153
*522 FILLER_0_18_165
*523 FILLER_0_18_177
*524 FILLER_0_18_189
*525 FILLER_0_18_195
*526 FILLER_0_18_197
*527 FILLER_0_18_209
*528 FILLER_0_18_221
*529 FILLER_0_18_233
*530 FILLER_0_18_245
*531 FILLER_0_18_251
*532 FILLER_0_18_253
*533 FILLER_0_18_265
*534 FILLER_0_18_27
*535 FILLER_0_18_277
*536 FILLER_0_18_289
*537 FILLER_0_18_29
*538 FILLER_0_18_3
*539 FILLER_0_18_301
*540 FILLER_0_18_307
*541 FILLER_0_18_309
*542 FILLER_0_18_321
*543 FILLER_0_18_333
*544 FILLER_0_18_41
*545 FILLER_0_18_53
*546 FILLER_0_18_65
*547 FILLER_0_18_77
*548 FILLER_0_18_83
*549 FILLER_0_18_85
*550 FILLER_0_18_97
*551 FILLER_0_19_105
*552 FILLER_0_19_111
*553 FILLER_0_19_113
*554 FILLER_0_19_125
*555 FILLER_0_19_137
*556 FILLER_0_19_149
*557 FILLER_0_19_15
*558 FILLER_0_19_161
*559 FILLER_0_19_167
*560 FILLER_0_19_169
*561 FILLER_0_19_181
*562 FILLER_0_19_193
*563 FILLER_0_19_205
*564 FILLER_0_19_217
*565 FILLER_0_19_223
*566 FILLER_0_19_225
*567 FILLER_0_19_237
*568 FILLER_0_19_249
*569 FILLER_0_19_261
*570 FILLER_0_19_27
*571 FILLER_0_19_273
*572 FILLER_0_19_279
*573 FILLER_0_19_281
*574 FILLER_0_19_293
*575 FILLER_0_19_3
*576 FILLER_0_19_305
*577 FILLER_0_19_317
*578 FILLER_0_19_329
*579 FILLER_0_19_39
*580 FILLER_0_19_51
*581 FILLER_0_19_55
*582 FILLER_0_19_57
*583 FILLER_0_19_69
*584 FILLER_0_19_81
*585 FILLER_0_19_93
*586 FILLER_0_1_105
*587 FILLER_0_1_111
*588 FILLER_0_1_113
*589 FILLER_0_1_125
*590 FILLER_0_1_137
*591 FILLER_0_1_149
*592 FILLER_0_1_15
*593 FILLER_0_1_161
*594 FILLER_0_1_167
*595 FILLER_0_1_169
*596 FILLER_0_1_181
*597 FILLER_0_1_193
*598 FILLER_0_1_205
*599 FILLER_0_1_217
*600 FILLER_0_1_223
*601 FILLER_0_1_225
*602 FILLER_0_1_237
*603 FILLER_0_1_249
*604 FILLER_0_1_261
*605 FILLER_0_1_27
*606 FILLER_0_1_273
*607 FILLER_0_1_279
*608 FILLER_0_1_281
*609 FILLER_0_1_293
*610 FILLER_0_1_3
*611 FILLER_0_1_305
*612 FILLER_0_1_317
*613 FILLER_0_1_329
*614 FILLER_0_1_39
*615 FILLER_0_1_51
*616 FILLER_0_1_55
*617 FILLER_0_1_57
*618 FILLER_0_1_69
*619 FILLER_0_1_81
*620 FILLER_0_1_93
*621 FILLER_0_20_109
*622 FILLER_0_20_121
*623 FILLER_0_20_133
*624 FILLER_0_20_139
*625 FILLER_0_20_141
*626 FILLER_0_20_15
*627 FILLER_0_20_153
*628 FILLER_0_20_165
*629 FILLER_0_20_177
*630 FILLER_0_20_189
*631 FILLER_0_20_195
*632 FILLER_0_20_197
*633 FILLER_0_20_209
*634 FILLER_0_20_221
*635 FILLER_0_20_233
*636 FILLER_0_20_245
*637 FILLER_0_20_251
*638 FILLER_0_20_253
*639 FILLER_0_20_265
*640 FILLER_0_20_27
*641 FILLER_0_20_277
*642 FILLER_0_20_289
*643 FILLER_0_20_29
*644 FILLER_0_20_3
*645 FILLER_0_20_301
*646 FILLER_0_20_307
*647 FILLER_0_20_309
*648 FILLER_0_20_321
*649 FILLER_0_20_333
*650 FILLER_0_20_41
*651 FILLER_0_20_53
*652 FILLER_0_20_65
*653 FILLER_0_20_77
*654 FILLER_0_20_83
*655 FILLER_0_20_85
*656 FILLER_0_20_97
*657 FILLER_0_21_105
*658 FILLER_0_21_111
*659 FILLER_0_21_113
*660 FILLER_0_21_125
*661 FILLER_0_21_137
*662 FILLER_0_21_149
*663 FILLER_0_21_15
*664 FILLER_0_21_161
*665 FILLER_0_21_167
*666 FILLER_0_21_169
*667 FILLER_0_21_181
*668 FILLER_0_21_193
*669 FILLER_0_21_205
*670 FILLER_0_21_217
*671 FILLER_0_21_223
*672 FILLER_0_21_225
*673 FILLER_0_21_237
*674 FILLER_0_21_249
*675 FILLER_0_21_261
*676 FILLER_0_21_27
*677 FILLER_0_21_273
*678 FILLER_0_21_279
*679 FILLER_0_21_281
*680 FILLER_0_21_293
*681 FILLER_0_21_3
*682 FILLER_0_21_305
*683 FILLER_0_21_317
*684 FILLER_0_21_329
*685 FILLER_0_21_39
*686 FILLER_0_21_51
*687 FILLER_0_21_55
*688 FILLER_0_21_57
*689 FILLER_0_21_69
*690 FILLER_0_21_81
*691 FILLER_0_21_93
*692 FILLER_0_22_109
*693 FILLER_0_22_121
*694 FILLER_0_22_133
*695 FILLER_0_22_139
*696 FILLER_0_22_141
*697 FILLER_0_22_15
*698 FILLER_0_22_153
*699 FILLER_0_22_165
*700 FILLER_0_22_177
*701 FILLER_0_22_189
*702 FILLER_0_22_195
*703 FILLER_0_22_197
*704 FILLER_0_22_209
*705 FILLER_0_22_221
*706 FILLER_0_22_233
*707 FILLER_0_22_245
*708 FILLER_0_22_251
*709 FILLER_0_22_253
*710 FILLER_0_22_265
*711 FILLER_0_22_27
*712 FILLER_0_22_277
*713 FILLER_0_22_289
*714 FILLER_0_22_29
*715 FILLER_0_22_3
*716 FILLER_0_22_301
*717 FILLER_0_22_307
*718 FILLER_0_22_309
*719 FILLER_0_22_321
*720 FILLER_0_22_333
*721 FILLER_0_22_41
*722 FILLER_0_22_53
*723 FILLER_0_22_65
*724 FILLER_0_22_77
*725 FILLER_0_22_83
*726 FILLER_0_22_85
*727 FILLER_0_22_97
*728 FILLER_0_23_105
*729 FILLER_0_23_111
*730 FILLER_0_23_113
*731 FILLER_0_23_125
*732 FILLER_0_23_137
*733 FILLER_0_23_149
*734 FILLER_0_23_15
*735 FILLER_0_23_161
*736 FILLER_0_23_167
*737 FILLER_0_23_169
*738 FILLER_0_23_181
*739 FILLER_0_23_193
*740 FILLER_0_23_205
*741 FILLER_0_23_217
*742 FILLER_0_23_223
*743 FILLER_0_23_225
*744 FILLER_0_23_237
*745 FILLER_0_23_249
*746 FILLER_0_23_261
*747 FILLER_0_23_27
*748 FILLER_0_23_273
*749 FILLER_0_23_279
*750 FILLER_0_23_281
*751 FILLER_0_23_293
*752 FILLER_0_23_3
*753 FILLER_0_23_305
*754 FILLER_0_23_317
*755 FILLER_0_23_329
*756 FILLER_0_23_39
*757 FILLER_0_23_51
*758 FILLER_0_23_55
*759 FILLER_0_23_57
*760 FILLER_0_23_69
*761 FILLER_0_23_81
*762 FILLER_0_23_93
*763 FILLER_0_24_109
*764 FILLER_0_24_121
*765 FILLER_0_24_133
*766 FILLER_0_24_139
*767 FILLER_0_24_141
*768 FILLER_0_24_15
*769 FILLER_0_24_153
*770 FILLER_0_24_165
*771 FILLER_0_24_177
*772 FILLER_0_24_189
*773 FILLER_0_24_195
*774 FILLER_0_24_197
*775 FILLER_0_24_209
*776 FILLER_0_24_221
*777 FILLER_0_24_233
*778 FILLER_0_24_245
*779 FILLER_0_24_251
*780 FILLER_0_24_253
*781 FILLER_0_24_265
*782 FILLER_0_24_27
*783 FILLER_0_24_277
*784 FILLER_0_24_289
*785 FILLER_0_24_29
*786 FILLER_0_24_3
*787 FILLER_0_24_301
*788 FILLER_0_24_307
*789 FILLER_0_24_309
*790 FILLER_0_24_321
*791 FILLER_0_24_333
*792 FILLER_0_24_41
*793 FILLER_0_24_53
*794 FILLER_0_24_65
*795 FILLER_0_24_77
*796 FILLER_0_24_83
*797 FILLER_0_24_85
*798 FILLER_0_24_97
*799 FILLER_0_25_105
*800 FILLER_0_25_111
*801 FILLER_0_25_113
*802 FILLER_0_25_125
*803 FILLER_0_25_137
*804 FILLER_0_25_149
*805 FILLER_0_25_15
*806 FILLER_0_25_161
*807 FILLER_0_25_167
*808 FILLER_0_25_169
*809 FILLER_0_25_181
*810 FILLER_0_25_193
*811 FILLER_0_25_210
*812 FILLER_0_25_222
*813 FILLER_0_25_225
*814 FILLER_0_25_236
*815 FILLER_0_25_248
*816 FILLER_0_25_260
*817 FILLER_0_25_27
*818 FILLER_0_25_272
*819 FILLER_0_25_281
*820 FILLER_0_25_293
*821 FILLER_0_25_3
*822 FILLER_0_25_305
*823 FILLER_0_25_323
*824 FILLER_0_25_39
*825 FILLER_0_25_51
*826 FILLER_0_25_55
*827 FILLER_0_25_57
*828 FILLER_0_25_69
*829 FILLER_0_25_81
*830 FILLER_0_25_93
*831 FILLER_0_26_109
*832 FILLER_0_26_121
*833 FILLER_0_26_133
*834 FILLER_0_26_139
*835 FILLER_0_26_141
*836 FILLER_0_26_15
*837 FILLER_0_26_153
*838 FILLER_0_26_165
*839 FILLER_0_26_177
*840 FILLER_0_26_189
*841 FILLER_0_26_213
*842 FILLER_0_26_225
*843 FILLER_0_26_249
*844 FILLER_0_26_253
*845 FILLER_0_26_265
*846 FILLER_0_26_269
*847 FILLER_0_26_27
*848 FILLER_0_26_273
*849 FILLER_0_26_285
*850 FILLER_0_26_29
*851 FILLER_0_26_3
*852 FILLER_0_26_306
*853 FILLER_0_26_325
*854 FILLER_0_26_333
*855 FILLER_0_26_41
*856 FILLER_0_26_53
*857 FILLER_0_26_65
*858 FILLER_0_26_77
*859 FILLER_0_26_83
*860 FILLER_0_26_85
*861 FILLER_0_26_97
*862 FILLER_0_27_105
*863 FILLER_0_27_111
*864 FILLER_0_27_113
*865 FILLER_0_27_125
*866 FILLER_0_27_137
*867 FILLER_0_27_149
*868 FILLER_0_27_15
*869 FILLER_0_27_161
*870 FILLER_0_27_167
*871 FILLER_0_27_169
*872 FILLER_0_27_181
*873 FILLER_0_27_218
*874 FILLER_0_27_260
*875 FILLER_0_27_27
*876 FILLER_0_27_281
*877 FILLER_0_27_289
*878 FILLER_0_27_297
*879 FILLER_0_27_3
*880 FILLER_0_27_331
*881 FILLER_0_27_39
*882 FILLER_0_27_51
*883 FILLER_0_27_55
*884 FILLER_0_27_57
*885 FILLER_0_27_69
*886 FILLER_0_27_81
*887 FILLER_0_27_93
*888 FILLER_0_28_109
*889 FILLER_0_28_121
*890 FILLER_0_28_133
*891 FILLER_0_28_139
*892 FILLER_0_28_141
*893 FILLER_0_28_15
*894 FILLER_0_28_153
*895 FILLER_0_28_165
*896 FILLER_0_28_177
*897 FILLER_0_28_189
*898 FILLER_0_28_195
*899 FILLER_0_28_213
*900 FILLER_0_28_251
*901 FILLER_0_28_253
*902 FILLER_0_28_259
*903 FILLER_0_28_27
*904 FILLER_0_28_29
*905 FILLER_0_28_298
*906 FILLER_0_28_3
*907 FILLER_0_28_304
*908 FILLER_0_28_325
*909 FILLER_0_28_333
*910 FILLER_0_28_41
*911 FILLER_0_28_53
*912 FILLER_0_28_65
*913 FILLER_0_28_77
*914 FILLER_0_28_83
*915 FILLER_0_28_85
*916 FILLER_0_28_97
*917 FILLER_0_29_105
*918 FILLER_0_29_111
*919 FILLER_0_29_113
*920 FILLER_0_29_125
*921 FILLER_0_29_137
*922 FILLER_0_29_149
*923 FILLER_0_29_15
*924 FILLER_0_29_161
*925 FILLER_0_29_167
*926 FILLER_0_29_169
*927 FILLER_0_29_181
*928 FILLER_0_29_193
*929 FILLER_0_29_221
*930 FILLER_0_29_225
*931 FILLER_0_29_230
*932 FILLER_0_29_254
*933 FILLER_0_29_262
*934 FILLER_0_29_27
*935 FILLER_0_29_284
*936 FILLER_0_29_296
*937 FILLER_0_29_3
*938 FILLER_0_29_308
*939 FILLER_0_29_316
*940 FILLER_0_29_328
*941 FILLER_0_29_334
*942 FILLER_0_29_39
*943 FILLER_0_29_51
*944 FILLER_0_29_55
*945 FILLER_0_29_57
*946 FILLER_0_29_69
*947 FILLER_0_29_81
*948 FILLER_0_29_93
*949 FILLER_0_2_109
*950 FILLER_0_2_121
*951 FILLER_0_2_133
*952 FILLER_0_2_139
*953 FILLER_0_2_141
*954 FILLER_0_2_15
*955 FILLER_0_2_153
*956 FILLER_0_2_165
*957 FILLER_0_2_177
*958 FILLER_0_2_189
*959 FILLER_0_2_195
*960 FILLER_0_2_197
*961 FILLER_0_2_209
*962 FILLER_0_2_221
*963 FILLER_0_2_233
*964 FILLER_0_2_245
*965 FILLER_0_2_251
*966 FILLER_0_2_253
*967 FILLER_0_2_265
*968 FILLER_0_2_27
*969 FILLER_0_2_277
*970 FILLER_0_2_289
*971 FILLER_0_2_29
*972 FILLER_0_2_3
*973 FILLER_0_2_301
*974 FILLER_0_2_307
*975 FILLER_0_2_309
*976 FILLER_0_2_321
*977 FILLER_0_2_333
*978 FILLER_0_2_41
*979 FILLER_0_2_53
*980 FILLER_0_2_65
*981 FILLER_0_2_77
*982 FILLER_0_2_83
*983 FILLER_0_2_85
*984 FILLER_0_2_97
*985 FILLER_0_30_109
*986 FILLER_0_30_121
*987 FILLER_0_30_133
*988 FILLER_0_30_139
*989 FILLER_0_30_141
*990 FILLER_0_30_15
*991 FILLER_0_30_153
*992 FILLER_0_30_165
*993 FILLER_0_30_177
*994 FILLER_0_30_189
*995 FILLER_0_30_195
*996 FILLER_0_30_197
*997 FILLER_0_30_203
*998 FILLER_0_30_220
*999 FILLER_0_30_228
*1000 FILLER_0_30_251
*1001 FILLER_0_30_253
*1002 FILLER_0_30_265
*1003 FILLER_0_30_27
*1004 FILLER_0_30_271
*1005 FILLER_0_30_29
*1006 FILLER_0_30_299
*1007 FILLER_0_30_3
*1008 FILLER_0_30_307
*1009 FILLER_0_30_309
*1010 FILLER_0_30_326
*1011 FILLER_0_30_334
*1012 FILLER_0_30_41
*1013 FILLER_0_30_53
*1014 FILLER_0_30_65
*1015 FILLER_0_30_77
*1016 FILLER_0_30_83
*1017 FILLER_0_30_85
*1018 FILLER_0_30_97
*1019 FILLER_0_31_105
*1020 FILLER_0_31_111
*1021 FILLER_0_31_113
*1022 FILLER_0_31_125
*1023 FILLER_0_31_137
*1024 FILLER_0_31_149
*1025 FILLER_0_31_15
*1026 FILLER_0_31_161
*1027 FILLER_0_31_167
*1028 FILLER_0_31_169
*1029 FILLER_0_31_181
*1030 FILLER_0_31_193
*1031 FILLER_0_31_231
*1032 FILLER_0_31_240
*1033 FILLER_0_31_252
*1034 FILLER_0_31_269
*1035 FILLER_0_31_27
*1036 FILLER_0_31_281
*1037 FILLER_0_31_298
*1038 FILLER_0_31_3
*1039 FILLER_0_31_306
*1040 FILLER_0_31_331
*1041 FILLER_0_31_39
*1042 FILLER_0_31_51
*1043 FILLER_0_31_55
*1044 FILLER_0_31_57
*1045 FILLER_0_31_69
*1046 FILLER_0_31_81
*1047 FILLER_0_31_93
*1048 FILLER_0_32_109
*1049 FILLER_0_32_121
*1050 FILLER_0_32_133
*1051 FILLER_0_32_139
*1052 FILLER_0_32_141
*1053 FILLER_0_32_15
*1054 FILLER_0_32_153
*1055 FILLER_0_32_165
*1056 FILLER_0_32_177
*1057 FILLER_0_32_189
*1058 FILLER_0_32_195
*1059 FILLER_0_32_197
*1060 FILLER_0_32_219
*1061 FILLER_0_32_231
*1062 FILLER_0_32_243
*1063 FILLER_0_32_251
*1064 FILLER_0_32_253
*1065 FILLER_0_32_27
*1066 FILLER_0_32_279
*1067 FILLER_0_32_29
*1068 FILLER_0_32_3
*1069 FILLER_0_32_304
*1070 FILLER_0_32_334
*1071 FILLER_0_32_41
*1072 FILLER_0_32_53
*1073 FILLER_0_32_65
*1074 FILLER_0_32_77
*1075 FILLER_0_32_83
*1076 FILLER_0_32_85
*1077 FILLER_0_32_97
*1078 FILLER_0_33_105
*1079 FILLER_0_33_111
*1080 FILLER_0_33_113
*1081 FILLER_0_33_125
*1082 FILLER_0_33_137
*1083 FILLER_0_33_149
*1084 FILLER_0_33_15
*1085 FILLER_0_33_161
*1086 FILLER_0_33_167
*1087 FILLER_0_33_169
*1088 FILLER_0_33_181
*1089 FILLER_0_33_193
*1090 FILLER_0_33_205
*1091 FILLER_0_33_210
*1092 FILLER_0_33_222
*1093 FILLER_0_33_225
*1094 FILLER_0_33_233
*1095 FILLER_0_33_27
*1096 FILLER_0_33_281
*1097 FILLER_0_33_293
*1098 FILLER_0_33_3
*1099 FILLER_0_33_308
*1100 FILLER_0_33_326
*1101 FILLER_0_33_39
*1102 FILLER_0_33_51
*1103 FILLER_0_33_55
*1104 FILLER_0_33_57
*1105 FILLER_0_33_69
*1106 FILLER_0_33_81
*1107 FILLER_0_33_93
*1108 FILLER_0_34_109
*1109 FILLER_0_34_121
*1110 FILLER_0_34_133
*1111 FILLER_0_34_139
*1112 FILLER_0_34_141
*1113 FILLER_0_34_15
*1114 FILLER_0_34_153
*1115 FILLER_0_34_165
*1116 FILLER_0_34_177
*1117 FILLER_0_34_189
*1118 FILLER_0_34_195
*1119 FILLER_0_34_197
*1120 FILLER_0_34_203
*1121 FILLER_0_34_217
*1122 FILLER_0_34_233
*1123 FILLER_0_34_245
*1124 FILLER_0_34_253
*1125 FILLER_0_34_257
*1126 FILLER_0_34_27
*1127 FILLER_0_34_272
*1128 FILLER_0_34_280
*1129 FILLER_0_34_288
*1130 FILLER_0_34_29
*1131 FILLER_0_34_3
*1132 FILLER_0_34_329
*1133 FILLER_0_34_41
*1134 FILLER_0_34_53
*1135 FILLER_0_34_65
*1136 FILLER_0_34_77
*1137 FILLER_0_34_83
*1138 FILLER_0_34_85
*1139 FILLER_0_34_97
*1140 FILLER_0_35_105
*1141 FILLER_0_35_111
*1142 FILLER_0_35_113
*1143 FILLER_0_35_125
*1144 FILLER_0_35_137
*1145 FILLER_0_35_149
*1146 FILLER_0_35_15
*1147 FILLER_0_35_161
*1148 FILLER_0_35_167
*1149 FILLER_0_35_169
*1150 FILLER_0_35_181
*1151 FILLER_0_35_193
*1152 FILLER_0_35_245
*1153 FILLER_0_35_27
*1154 FILLER_0_35_281
*1155 FILLER_0_35_294
*1156 FILLER_0_35_3
*1157 FILLER_0_35_334
*1158 FILLER_0_35_39
*1159 FILLER_0_35_51
*1160 FILLER_0_35_55
*1161 FILLER_0_35_57
*1162 FILLER_0_35_69
*1163 FILLER_0_35_81
*1164 FILLER_0_35_93
*1165 FILLER_0_36_109
*1166 FILLER_0_36_121
*1167 FILLER_0_36_133
*1168 FILLER_0_36_139
*1169 FILLER_0_36_141
*1170 FILLER_0_36_15
*1171 FILLER_0_36_153
*1172 FILLER_0_36_165
*1173 FILLER_0_36_177
*1174 FILLER_0_36_189
*1175 FILLER_0_36_238
*1176 FILLER_0_36_27
*1177 FILLER_0_36_284
*1178 FILLER_0_36_29
*1179 FILLER_0_36_292
*1180 FILLER_0_36_3
*1181 FILLER_0_36_334
*1182 FILLER_0_36_41
*1183 FILLER_0_36_53
*1184 FILLER_0_36_65
*1185 FILLER_0_36_77
*1186 FILLER_0_36_83
*1187 FILLER_0_36_85
*1188 FILLER_0_36_97
*1189 FILLER_0_37_105
*1190 FILLER_0_37_111
*1191 FILLER_0_37_113
*1192 FILLER_0_37_125
*1193 FILLER_0_37_137
*1194 FILLER_0_37_149
*1195 FILLER_0_37_15
*1196 FILLER_0_37_161
*1197 FILLER_0_37_167
*1198 FILLER_0_37_169
*1199 FILLER_0_37_181
*1200 FILLER_0_37_189
*1201 FILLER_0_37_197
*1202 FILLER_0_37_237
*1203 FILLER_0_37_27
*1204 FILLER_0_37_274
*1205 FILLER_0_37_281
*1206 FILLER_0_37_293
*1207 FILLER_0_37_3
*1208 FILLER_0_37_39
*1209 FILLER_0_37_51
*1210 FILLER_0_37_55
*1211 FILLER_0_37_57
*1212 FILLER_0_37_69
*1213 FILLER_0_37_81
*1214 FILLER_0_37_93
*1215 FILLER_0_38_10
*1216 FILLER_0_38_102
*1217 FILLER_0_38_106
*1218 FILLER_0_38_110
*1219 FILLER_0_38_113
*1220 FILLER_0_38_118
*1221 FILLER_0_38_122
*1222 FILLER_0_38_126
*1223 FILLER_0_38_130
*1224 FILLER_0_38_134
*1225 FILLER_0_38_14
*1226 FILLER_0_38_144
*1227 FILLER_0_38_150
*1228 FILLER_0_38_154
*1229 FILLER_0_38_158
*1230 FILLER_0_38_162
*1231 FILLER_0_38_166
*1232 FILLER_0_38_169
*1233 FILLER_0_38_174
*1234 FILLER_0_38_178
*1235 FILLER_0_38_18
*1236 FILLER_0_38_182
*1237 FILLER_0_38_194
*1238 FILLER_0_38_197
*1239 FILLER_0_38_22
*1240 FILLER_0_38_240
*1241 FILLER_0_38_253
*1242 FILLER_0_38_272
*1243 FILLER_0_38_281
*1244 FILLER_0_38_293
*1245 FILLER_0_38_299
*1246 FILLER_0_38_306
*1247 FILLER_0_38_32
*1248 FILLER_0_38_334
*1249 FILLER_0_38_38
*1250 FILLER_0_38_42
*1251 FILLER_0_38_46
*1252 FILLER_0_38_50
*1253 FILLER_0_38_54
*1254 FILLER_0_38_57
*1255 FILLER_0_38_6
*1256 FILLER_0_38_62
*1257 FILLER_0_38_66
*1258 FILLER_0_38_70
*1259 FILLER_0_38_74
*1260 FILLER_0_38_78
*1261 FILLER_0_38_88
*1262 FILLER_0_38_94
*1263 FILLER_0_38_98
*1264 FILLER_0_3_105
*1265 FILLER_0_3_111
*1266 FILLER_0_3_113
*1267 FILLER_0_3_125
*1268 FILLER_0_3_137
*1269 FILLER_0_3_149
*1270 FILLER_0_3_15
*1271 FILLER_0_3_161
*1272 FILLER_0_3_167
*1273 FILLER_0_3_169
*1274 FILLER_0_3_181
*1275 FILLER_0_3_193
*1276 FILLER_0_3_205
*1277 FILLER_0_3_217
*1278 FILLER_0_3_223
*1279 FILLER_0_3_225
*1280 FILLER_0_3_237
*1281 FILLER_0_3_249
*1282 FILLER_0_3_261
*1283 FILLER_0_3_27
*1284 FILLER_0_3_273
*1285 FILLER_0_3_279
*1286 FILLER_0_3_281
*1287 FILLER_0_3_293
*1288 FILLER_0_3_3
*1289 FILLER_0_3_305
*1290 FILLER_0_3_317
*1291 FILLER_0_3_329
*1292 FILLER_0_3_39
*1293 FILLER_0_3_51
*1294 FILLER_0_3_55
*1295 FILLER_0_3_57
*1296 FILLER_0_3_69
*1297 FILLER_0_3_81
*1298 FILLER_0_3_93
*1299 FILLER_0_4_109
*1300 FILLER_0_4_121
*1301 FILLER_0_4_133
*1302 FILLER_0_4_139
*1303 FILLER_0_4_141
*1304 FILLER_0_4_15
*1305 FILLER_0_4_153
*1306 FILLER_0_4_165
*1307 FILLER_0_4_177
*1308 FILLER_0_4_189
*1309 FILLER_0_4_195
*1310 FILLER_0_4_197
*1311 FILLER_0_4_209
*1312 FILLER_0_4_221
*1313 FILLER_0_4_233
*1314 FILLER_0_4_245
*1315 FILLER_0_4_251
*1316 FILLER_0_4_253
*1317 FILLER_0_4_265
*1318 FILLER_0_4_27
*1319 FILLER_0_4_277
*1320 FILLER_0_4_289
*1321 FILLER_0_4_29
*1322 FILLER_0_4_3
*1323 FILLER_0_4_301
*1324 FILLER_0_4_307
*1325 FILLER_0_4_309
*1326 FILLER_0_4_321
*1327 FILLER_0_4_333
*1328 FILLER_0_4_41
*1329 FILLER_0_4_53
*1330 FILLER_0_4_65
*1331 FILLER_0_4_77
*1332 FILLER_0_4_83
*1333 FILLER_0_4_85
*1334 FILLER_0_4_97
*1335 FILLER_0_5_105
*1336 FILLER_0_5_111
*1337 FILLER_0_5_113
*1338 FILLER_0_5_125
*1339 FILLER_0_5_137
*1340 FILLER_0_5_149
*1341 FILLER_0_5_15
*1342 FILLER_0_5_161
*1343 FILLER_0_5_167
*1344 FILLER_0_5_169
*1345 FILLER_0_5_181
*1346 FILLER_0_5_193
*1347 FILLER_0_5_205
*1348 FILLER_0_5_217
*1349 FILLER_0_5_223
*1350 FILLER_0_5_225
*1351 FILLER_0_5_237
*1352 FILLER_0_5_249
*1353 FILLER_0_5_261
*1354 FILLER_0_5_27
*1355 FILLER_0_5_273
*1356 FILLER_0_5_279
*1357 FILLER_0_5_281
*1358 FILLER_0_5_293
*1359 FILLER_0_5_3
*1360 FILLER_0_5_305
*1361 FILLER_0_5_317
*1362 FILLER_0_5_329
*1363 FILLER_0_5_39
*1364 FILLER_0_5_51
*1365 FILLER_0_5_55
*1366 FILLER_0_5_57
*1367 FILLER_0_5_69
*1368 FILLER_0_5_81
*1369 FILLER_0_5_93
*1370 FILLER_0_6_109
*1371 FILLER_0_6_121
*1372 FILLER_0_6_133
*1373 FILLER_0_6_139
*1374 FILLER_0_6_141
*1375 FILLER_0_6_15
*1376 FILLER_0_6_153
*1377 FILLER_0_6_165
*1378 FILLER_0_6_177
*1379 FILLER_0_6_189
*1380 FILLER_0_6_195
*1381 FILLER_0_6_197
*1382 FILLER_0_6_209
*1383 FILLER_0_6_221
*1384 FILLER_0_6_233
*1385 FILLER_0_6_245
*1386 FILLER_0_6_251
*1387 FILLER_0_6_253
*1388 FILLER_0_6_265
*1389 FILLER_0_6_27
*1390 FILLER_0_6_277
*1391 FILLER_0_6_289
*1392 FILLER_0_6_29
*1393 FILLER_0_6_3
*1394 FILLER_0_6_301
*1395 FILLER_0_6_307
*1396 FILLER_0_6_309
*1397 FILLER_0_6_321
*1398 FILLER_0_6_333
*1399 FILLER_0_6_41
*1400 FILLER_0_6_53
*1401 FILLER_0_6_65
*1402 FILLER_0_6_77
*1403 FILLER_0_6_83
*1404 FILLER_0_6_85
*1405 FILLER_0_6_97
*1406 FILLER_0_7_105
*1407 FILLER_0_7_111
*1408 FILLER_0_7_113
*1409 FILLER_0_7_125
*1410 FILLER_0_7_137
*1411 FILLER_0_7_149
*1412 FILLER_0_7_15
*1413 FILLER_0_7_161
*1414 FILLER_0_7_167
*1415 FILLER_0_7_169
*1416 FILLER_0_7_181
*1417 FILLER_0_7_193
*1418 FILLER_0_7_205
*1419 FILLER_0_7_217
*1420 FILLER_0_7_223
*1421 FILLER_0_7_225
*1422 FILLER_0_7_237
*1423 FILLER_0_7_249
*1424 FILLER_0_7_261
*1425 FILLER_0_7_27
*1426 FILLER_0_7_273
*1427 FILLER_0_7_279
*1428 FILLER_0_7_281
*1429 FILLER_0_7_293
*1430 FILLER_0_7_3
*1431 FILLER_0_7_305
*1432 FILLER_0_7_317
*1433 FILLER_0_7_329
*1434 FILLER_0_7_39
*1435 FILLER_0_7_51
*1436 FILLER_0_7_55
*1437 FILLER_0_7_57
*1438 FILLER_0_7_69
*1439 FILLER_0_7_81
*1440 FILLER_0_7_93
*1441 FILLER_0_8_109
*1442 FILLER_0_8_121
*1443 FILLER_0_8_133
*1444 FILLER_0_8_139
*1445 FILLER_0_8_141
*1446 FILLER_0_8_15
*1447 FILLER_0_8_153
*1448 FILLER_0_8_165
*1449 FILLER_0_8_177
*1450 FILLER_0_8_189
*1451 FILLER_0_8_195
*1452 FILLER_0_8_197
*1453 FILLER_0_8_209
*1454 FILLER_0_8_221
*1455 FILLER_0_8_233
*1456 FILLER_0_8_245
*1457 FILLER_0_8_251
*1458 FILLER_0_8_253
*1459 FILLER_0_8_265
*1460 FILLER_0_8_27
*1461 FILLER_0_8_277
*1462 FILLER_0_8_289
*1463 FILLER_0_8_29
*1464 FILLER_0_8_3
*1465 FILLER_0_8_301
*1466 FILLER_0_8_307
*1467 FILLER_0_8_309
*1468 FILLER_0_8_321
*1469 FILLER_0_8_333
*1470 FILLER_0_8_41
*1471 FILLER_0_8_53
*1472 FILLER_0_8_65
*1473 FILLER_0_8_77
*1474 FILLER_0_8_83
*1475 FILLER_0_8_85
*1476 FILLER_0_8_97
*1477 FILLER_0_9_105
*1478 FILLER_0_9_111
*1479 FILLER_0_9_113
*1480 FILLER_0_9_125
*1481 FILLER_0_9_137
*1482 FILLER_0_9_149
*1483 FILLER_0_9_15
*1484 FILLER_0_9_161
*1485 FILLER_0_9_167
*1486 FILLER_0_9_169
*1487 FILLER_0_9_181
*1488 FILLER_0_9_193
*1489 FILLER_0_9_205
*1490 FILLER_0_9_217
*1491 FILLER_0_9_223