*SPEF "ieee 1481-1999"
*DESIGN "tt_um_wokwi_384804985843168257"
*DATE "08:49:25 Wednesday April 10, 2024"
*VENDOR "The OpenROAD Project"
*PROGRAM "OpenROAD"
*VERSION "0889970d1790a2617e69f253221b8bd7626e51dc"
*DESIGN_FLOW "NAME_SCOPE LOCAL" "PIN_CAP NONE"
*DIVIDER /
*DELIMITER :
*BUS_DELIMITER []
*T_UNIT 1 NS
*C_UNIT 1 PF
*R_UNIT 1 OHM
*L_UNIT 1 HENRY

*NAME_MAP
*3 clk
*4 ena
*5 rst_n
*6 ui_in[0]
*7 ui_in[1]
*8 ui_in[2]
*9 ui_in[3]
*10 ui_in[4]
*11 ui_in[5]
*12 ui_in[6]
*13 ui_in[7]
*14 uio_in[0]
*15 uio_in[1]
*16 uio_in[2]
*17 uio_in[3]
*18 uio_in[4]
*19 uio_in[5]
*20 uio_in[6]
*21 uio_in[7]
*22 net5
*23 net6
*24 net7
*25 net8
*26 net9
*27 net10
*28 net11
*29 net12
*30 net13
*31 net14
*32 net15
*33 net16
*34 net17
*35 net18
*36 net19
*37 net20
*38 uo_out[0]
*39 uo_out[1]
*40 uo_out[2]
*41 uo_out[3]
*42 uo_out[4]
*43 uo_out[5]
*44 uo_out[6]
*45 uo_out[7]
*46 and3\.out
*47 net1
*48 net2
*49 net3
*50 net4
*51 not1\.out
*52 FILLER_0_0_109
*53 FILLER_0_0_113
*54 FILLER_0_0_125
*55 FILLER_0_0_137
*56 FILLER_0_0_141
*57 FILLER_0_0_15
*58 FILLER_0_0_153
*59 FILLER_0_0_165
*60 FILLER_0_0_169
*61 FILLER_0_0_181
*62 FILLER_0_0_193
*63 FILLER_0_0_197
*64 FILLER_0_0_209
*65 FILLER_0_0_221
*66 FILLER_0_0_225
*67 FILLER_0_0_237
*68 FILLER_0_0_249
*69 FILLER_0_0_253
*70 FILLER_0_0_265
*71 FILLER_0_0_27
*72 FILLER_0_0_277
*73 FILLER_0_0_281
*74 FILLER_0_0_29
*75 FILLER_0_0_293
*76 FILLER_0_0_3
*77 FILLER_0_0_305
*78 FILLER_0_0_309
*79 FILLER_0_0_321
*80 FILLER_0_0_333
*81 FILLER_0_0_41
*82 FILLER_0_0_53
*83 FILLER_0_0_57
*84 FILLER_0_0_69
*85 FILLER_0_0_81
*86 FILLER_0_0_85
*87 FILLER_0_0_97
*88 FILLER_0_10_109
*89 FILLER_0_10_121
*90 FILLER_0_10_133
*91 FILLER_0_10_139
*92 FILLER_0_10_141
*93 FILLER_0_10_15
*94 FILLER_0_10_153
*95 FILLER_0_10_165
*96 FILLER_0_10_177
*97 FILLER_0_10_189
*98 FILLER_0_10_195
*99 FILLER_0_10_197
*100 FILLER_0_10_209
*101 FILLER_0_10_221
*102 FILLER_0_10_233
*103 FILLER_0_10_245
*104 FILLER_0_10_251
*105 FILLER_0_10_253
*106 FILLER_0_10_265
*107 FILLER_0_10_27
*108 FILLER_0_10_277
*109 FILLER_0_10_289
*110 FILLER_0_10_29
*111 FILLER_0_10_3
*112 FILLER_0_10_301
*113 FILLER_0_10_307
*114 FILLER_0_10_309
*115 FILLER_0_10_321
*116 FILLER_0_10_333
*117 FILLER_0_10_41
*118 FILLER_0_10_53
*119 FILLER_0_10_65
*120 FILLER_0_10_77
*121 FILLER_0_10_83
*122 FILLER_0_10_85
*123 FILLER_0_10_97
*124 FILLER_0_11_105
*125 FILLER_0_11_111
*126 FILLER_0_11_113
*127 FILLER_0_11_125
*128 FILLER_0_11_137
*129 FILLER_0_11_149
*130 FILLER_0_11_15
*131 FILLER_0_11_161
*132 FILLER_0_11_167
*133 FILLER_0_11_169
*134 FILLER_0_11_181
*135 FILLER_0_11_193
*136 FILLER_0_11_205
*137 FILLER_0_11_217
*138 FILLER_0_11_223
*139 FILLER_0_11_225
*140 FILLER_0_11_237
*141 FILLER_0_11_249
*142 FILLER_0_11_261
*143 FILLER_0_11_27
*144 FILLER_0_11_273
*145 FILLER_0_11_279
*146 FILLER_0_11_281
*147 FILLER_0_11_293
*148 FILLER_0_11_3
*149 FILLER_0_11_305
*150 FILLER_0_11_317
*151 FILLER_0_11_329
*152 FILLER_0_11_39
*153 FILLER_0_11_51
*154 FILLER_0_11_55
*155 FILLER_0_11_57
*156 FILLER_0_11_69
*157 FILLER_0_11_81
*158 FILLER_0_11_93
*159 FILLER_0_12_109
*160 FILLER_0_12_121
*161 FILLER_0_12_133
*162 FILLER_0_12_139
*163 FILLER_0_12_141
*164 FILLER_0_12_15
*165 FILLER_0_12_153
*166 FILLER_0_12_165
*167 FILLER_0_12_177
*168 FILLER_0_12_189
*169 FILLER_0_12_195
*170 FILLER_0_12_197
*171 FILLER_0_12_209
*172 FILLER_0_12_221
*173 FILLER_0_12_233
*174 FILLER_0_12_245
*175 FILLER_0_12_251
*176 FILLER_0_12_253
*177 FILLER_0_12_265
*178 FILLER_0_12_27
*179 FILLER_0_12_277
*180 FILLER_0_12_289
*181 FILLER_0_12_29
*182 FILLER_0_12_3
*183 FILLER_0_12_301
*184 FILLER_0_12_307
*185 FILLER_0_12_309
*186 FILLER_0_12_321
*187 FILLER_0_12_333
*188 FILLER_0_12_41
*189 FILLER_0_12_53
*190 FILLER_0_12_65
*191 FILLER_0_12_77
*192 FILLER_0_12_83
*193 FILLER_0_12_85
*194 FILLER_0_12_97
*195 FILLER_0_13_105
*196 FILLER_0_13_111
*197 FILLER_0_13_113
*198 FILLER_0_13_125
*199 FILLER_0_13_137
*200 FILLER_0_13_149
*201 FILLER_0_13_15
*202 FILLER_0_13_161
*203 FILLER_0_13_167
*204 FILLER_0_13_169
*205 FILLER_0_13_181
*206 FILLER_0_13_193
*207 FILLER_0_13_205
*208 FILLER_0_13_217
*209 FILLER_0_13_223
*210 FILLER_0_13_225
*211 FILLER_0_13_237
*212 FILLER_0_13_249
*213 FILLER_0_13_261
*214 FILLER_0_13_27
*215 FILLER_0_13_273
*216 FILLER_0_13_279
*217 FILLER_0_13_281
*218 FILLER_0_13_293
*219 FILLER_0_13_3
*220 FILLER_0_13_305
*221 FILLER_0_13_317
*222 FILLER_0_13_329
*223 FILLER_0_13_39
*224 FILLER_0_13_51
*225 FILLER_0_13_55
*226 FILLER_0_13_57
*227 FILLER_0_13_69
*228 FILLER_0_13_81
*229 FILLER_0_13_93
*230 FILLER_0_14_109
*231 FILLER_0_14_121
*232 FILLER_0_14_133
*233 FILLER_0_14_139
*234 FILLER_0_14_141
*235 FILLER_0_14_15
*236 FILLER_0_14_153
*237 FILLER_0_14_165
*238 FILLER_0_14_177
*239 FILLER_0_14_189
*240 FILLER_0_14_195
*241 FILLER_0_14_197
*242 FILLER_0_14_209
*243 FILLER_0_14_221
*244 FILLER_0_14_233
*245 FILLER_0_14_245
*246 FILLER_0_14_251
*247 FILLER_0_14_253
*248 FILLER_0_14_265
*249 FILLER_0_14_27
*250 FILLER_0_14_277
*251 FILLER_0_14_289
*252 FILLER_0_14_29
*253 FILLER_0_14_3
*254 FILLER_0_14_301
*255 FILLER_0_14_307
*256 FILLER_0_14_309
*257 FILLER_0_14_321
*258 FILLER_0_14_333
*259 FILLER_0_14_41
*260 FILLER_0_14_53
*261 FILLER_0_14_65
*262 FILLER_0_14_77
*263 FILLER_0_14_83
*264 FILLER_0_14_85
*265 FILLER_0_14_97
*266 FILLER_0_15_105
*267 FILLER_0_15_111
*268 FILLER_0_15_113
*269 FILLER_0_15_125
*270 FILLER_0_15_137
*271 FILLER_0_15_149
*272 FILLER_0_15_15
*273 FILLER_0_15_161
*274 FILLER_0_15_167
*275 FILLER_0_15_169
*276 FILLER_0_15_181
*277 FILLER_0_15_193
*278 FILLER_0_15_205
*279 FILLER_0_15_217
*280 FILLER_0_15_223
*281 FILLER_0_15_225
*282 FILLER_0_15_237
*283 FILLER_0_15_249
*284 FILLER_0_15_261
*285 FILLER_0_15_27
*286 FILLER_0_15_273
*287 FILLER_0_15_279
*288 FILLER_0_15_281
*289 FILLER_0_15_293
*290 FILLER_0_15_3
*291 FILLER_0_15_305
*292 FILLER_0_15_317
*293 FILLER_0_15_329
*294 FILLER_0_15_39
*295 FILLER_0_15_51
*296 FILLER_0_15_55
*297 FILLER_0_15_57
*298 FILLER_0_15_69
*299 FILLER_0_15_81
*300 FILLER_0_15_93
*301 FILLER_0_16_109
*302 FILLER_0_16_121
*303 FILLER_0_16_133
*304 FILLER_0_16_139
*305 FILLER_0_16_141
*306 FILLER_0_16_15
*307 FILLER_0_16_153
*308 FILLER_0_16_165
*309 FILLER_0_16_177
*310 FILLER_0_16_189
*311 FILLER_0_16_195
*312 FILLER_0_16_197
*313 FILLER_0_16_209
*314 FILLER_0_16_221
*315 FILLER_0_16_233
*316 FILLER_0_16_245
*317 FILLER_0_16_251
*318 FILLER_0_16_253
*319 FILLER_0_16_265
*320 FILLER_0_16_27
*321 FILLER_0_16_277
*322 FILLER_0_16_289
*323 FILLER_0_16_29
*324 FILLER_0_16_3
*325 FILLER_0_16_301
*326 FILLER_0_16_307
*327 FILLER_0_16_309
*328 FILLER_0_16_321
*329 FILLER_0_16_333
*330 FILLER_0_16_41
*331 FILLER_0_16_53
*332 FILLER_0_16_65
*333 FILLER_0_16_77
*334 FILLER_0_16_83
*335 FILLER_0_16_85
*336 FILLER_0_16_97
*337 FILLER_0_17_105
*338 FILLER_0_17_111
*339 FILLER_0_17_113
*340 FILLER_0_17_125
*341 FILLER_0_17_137
*342 FILLER_0_17_149
*343 FILLER_0_17_15
*344 FILLER_0_17_161
*345 FILLER_0_17_167
*346 FILLER_0_17_169
*347 FILLER_0_17_181
*348 FILLER_0_17_193
*349 FILLER_0_17_205
*350 FILLER_0_17_217
*351 FILLER_0_17_223
*352 FILLER_0_17_225
*353 FILLER_0_17_237
*354 FILLER_0_17_249
*355 FILLER_0_17_261
*356 FILLER_0_17_27
*357 FILLER_0_17_273
*358 FILLER_0_17_279
*359 FILLER_0_17_281
*360 FILLER_0_17_293
*361 FILLER_0_17_3
*362 FILLER_0_17_305
*363 FILLER_0_17_317
*364 FILLER_0_17_329
*365 FILLER_0_17_39
*366 FILLER_0_17_51
*367 FILLER_0_17_55
*368 FILLER_0_17_57
*369 FILLER_0_17_69
*370 FILLER_0_17_81
*371 FILLER_0_17_93
*372 FILLER_0_18_109
*373 FILLER_0_18_121
*374 FILLER_0_18_133
*375 FILLER_0_18_139
*376 FILLER_0_18_141
*377 FILLER_0_18_15
*378 FILLER_0_18_153
*379 FILLER_0_18_165
*380 FILLER_0_18_177
*381 FILLER_0_18_189
*382 FILLER_0_18_195
*383 FILLER_0_18_197
*384 FILLER_0_18_209
*385 FILLER_0_18_221
*386 FILLER_0_18_233
*387 FILLER_0_18_245
*388 FILLER_0_18_251
*389 FILLER_0_18_253
*390 FILLER_0_18_265
*391 FILLER_0_18_27
*392 FILLER_0_18_277
*393 FILLER_0_18_289
*394 FILLER_0_18_29
*395 FILLER_0_18_3
*396 FILLER_0_18_301
*397 FILLER_0_18_307
*398 FILLER_0_18_309
*399 FILLER_0_18_321
*400 FILLER_0_18_333
*401 FILLER_0_18_41
*402 FILLER_0_18_53
*403 FILLER_0_18_65
*404 FILLER_0_18_77
*405 FILLER_0_18_83
*406 FILLER_0_18_85
*407 FILLER_0_18_97
*408 FILLER_0_19_105
*409 FILLER_0_19_111
*410 FILLER_0_19_113
*411 FILLER_0_19_125
*412 FILLER_0_19_137
*413 FILLER_0_19_149
*414 FILLER_0_19_15
*415 FILLER_0_19_161
*416 FILLER_0_19_167
*417 FILLER_0_19_169
*418 FILLER_0_19_181
*419 FILLER_0_19_193
*420 FILLER_0_19_205
*421 FILLER_0_19_217
*422 FILLER_0_19_223
*423 FILLER_0_19_225
*424 FILLER_0_19_237
*425 FILLER_0_19_249
*426 FILLER_0_19_261
*427 FILLER_0_19_27
*428 FILLER_0_19_273
*429 FILLER_0_19_279
*430 FILLER_0_19_281
*431 FILLER_0_19_293
*432 FILLER_0_19_3
*433 FILLER_0_19_305
*434 FILLER_0_19_317
*435 FILLER_0_19_329
*436 FILLER_0_19_39
*437 FILLER_0_19_51
*438 FILLER_0_19_55
*439 FILLER_0_19_57
*440 FILLER_0_19_69
*441 FILLER_0_19_81
*442 FILLER_0_19_93
*443 FILLER_0_1_105
*444 FILLER_0_1_111
*445 FILLER_0_1_113
*446 FILLER_0_1_125
*447 FILLER_0_1_137
*448 FILLER_0_1_149
*449 FILLER_0_1_15
*450 FILLER_0_1_161
*451 FILLER_0_1_167
*452 FILLER_0_1_169
*453 FILLER_0_1_181
*454 FILLER_0_1_193
*455 FILLER_0_1_205
*456 FILLER_0_1_217
*457 FILLER_0_1_223
*458 FILLER_0_1_225
*459 FILLER_0_1_237
*460 FILLER_0_1_249
*461 FILLER_0_1_261
*462 FILLER_0_1_27
*463 FILLER_0_1_273
*464 FILLER_0_1_279
*465 FILLER_0_1_281
*466 FILLER_0_1_293
*467 FILLER_0_1_3
*468 FILLER_0_1_305
*469 FILLER_0_1_317
*470 FILLER_0_1_329
*471 FILLER_0_1_39
*472 FILLER_0_1_51
*473 FILLER_0_1_55
*474 FILLER_0_1_57
*475 FILLER_0_1_69
*476 FILLER_0_1_81
*477 FILLER_0_1_93
*478 FILLER_0_20_109
*479 FILLER_0_20_121
*480 FILLER_0_20_133
*481 FILLER_0_20_139
*482 FILLER_0_20_141
*483 FILLER_0_20_15
*484 FILLER_0_20_153
*485 FILLER_0_20_165
*486 FILLER_0_20_177
*487 FILLER_0_20_189
*488 FILLER_0_20_195
*489 FILLER_0_20_197
*490 FILLER_0_20_209
*491 FILLER_0_20_221
*492 FILLER_0_20_233
*493 FILLER_0_20_245
*494 FILLER_0_20_251
*495 FILLER_0_20_253
*496 FILLER_0_20_265
*497 FILLER_0_20_27
*498 FILLER_0_20_277
*499 FILLER_0_20_289
*500 FILLER_0_20_29
*501 FILLER_0_20_3
*502 FILLER_0_20_301
*503 FILLER_0_20_307
*504 FILLER_0_20_309
*505 FILLER_0_20_321
*506 FILLER_0_20_333
*507 FILLER_0_20_41
*508 FILLER_0_20_53
*509 FILLER_0_20_65
*510 FILLER_0_20_77
*511 FILLER_0_20_83
*512 FILLER_0_20_85
*513 FILLER_0_20_97
*514 FILLER_0_21_105
*515 FILLER_0_21_111
*516 FILLER_0_21_113
*517 FILLER_0_21_125
*518 FILLER_0_21_137
*519 FILLER_0_21_149
*520 FILLER_0_21_15
*521 FILLER_0_21_161
*522 FILLER_0_21_167
*523 FILLER_0_21_169
*524 FILLER_0_21_181
*525 FILLER_0_21_193
*526 FILLER_0_21_205
*527 FILLER_0_21_217
*528 FILLER_0_21_223
*529 FILLER_0_21_225
*530 FILLER_0_21_237
*531 FILLER_0_21_249
*532 FILLER_0_21_261
*533 FILLER_0_21_27
*534 FILLER_0_21_273
*535 FILLER_0_21_279
*536 FILLER_0_21_281
*537 FILLER_0_21_293
*538 FILLER_0_21_3
*539 FILLER_0_21_305
*540 FILLER_0_21_317
*541 FILLER_0_21_329
*542 FILLER_0_21_39
*543 FILLER_0_21_51
*544 FILLER_0_21_55
*545 FILLER_0_21_57
*546 FILLER_0_21_69
*547 FILLER_0_21_81
*548 FILLER_0_21_93
*549 FILLER_0_22_109
*550 FILLER_0_22_121
*551 FILLER_0_22_133
*552 FILLER_0_22_139
*553 FILLER_0_22_141
*554 FILLER_0_22_15
*555 FILLER_0_22_153
*556 FILLER_0_22_165
*557 FILLER_0_22_177
*558 FILLER_0_22_189
*559 FILLER_0_22_195
*560 FILLER_0_22_197
*561 FILLER_0_22_209
*562 FILLER_0_22_221
*563 FILLER_0_22_233
*564 FILLER_0_22_245
*565 FILLER_0_22_251
*566 FILLER_0_22_253
*567 FILLER_0_22_265
*568 FILLER_0_22_27
*569 FILLER_0_22_277
*570 FILLER_0_22_289
*571 FILLER_0_22_29
*572 FILLER_0_22_3
*573 FILLER_0_22_301
*574 FILLER_0_22_307
*575 FILLER_0_22_309
*576 FILLER_0_22_321
*577 FILLER_0_22_333
*578 FILLER_0_22_41
*579 FILLER_0_22_53
*580 FILLER_0_22_65
*581 FILLER_0_22_77
*582 FILLER_0_22_83
*583 FILLER_0_22_85
*584 FILLER_0_22_97
*585 FILLER_0_23_105
*586 FILLER_0_23_111
*587 FILLER_0_23_113
*588 FILLER_0_23_125
*589 FILLER_0_23_137
*590 FILLER_0_23_149
*591 FILLER_0_23_15
*592 FILLER_0_23_161
*593 FILLER_0_23_167
*594 FILLER_0_23_169
*595 FILLER_0_23_181
*596 FILLER_0_23_193
*597 FILLER_0_23_205
*598 FILLER_0_23_217
*599 FILLER_0_23_223
*600 FILLER_0_23_225
*601 FILLER_0_23_237
*602 FILLER_0_23_249
*603 FILLER_0_23_261
*604 FILLER_0_23_27
*605 FILLER_0_23_273
*606 FILLER_0_23_279
*607 FILLER_0_23_281
*608 FILLER_0_23_293
*609 FILLER_0_23_3
*610 FILLER_0_23_305
*611 FILLER_0_23_317
*612 FILLER_0_23_329
*613 FILLER_0_23_39
*614 FILLER_0_23_51
*615 FILLER_0_23_55
*616 FILLER_0_23_57
*617 FILLER_0_23_69
*618 FILLER_0_23_81
*619 FILLER_0_23_93
*620 FILLER_0_24_109
*621 FILLER_0_24_121
*622 FILLER_0_24_133
*623 FILLER_0_24_139
*624 FILLER_0_24_141
*625 FILLER_0_24_15
*626 FILLER_0_24_153
*627 FILLER_0_24_165
*628 FILLER_0_24_177
*629 FILLER_0_24_189
*630 FILLER_0_24_195
*631 FILLER_0_24_197
*632 FILLER_0_24_209
*633 FILLER_0_24_221
*634 FILLER_0_24_233
*635 FILLER_0_24_245
*636 FILLER_0_24_251
*637 FILLER_0_24_253
*638 FILLER_0_24_265
*639 FILLER_0_24_27
*640 FILLER_0_24_277
*641 FILLER_0_24_289
*642 FILLER_0_24_29
*643 FILLER_0_24_3
*644 FILLER_0_24_301
*645 FILLER_0_24_307
*646 FILLER_0_24_309
*647 FILLER_0_24_321
*648 FILLER_0_24_333
*649 FILLER_0_24_41
*650 FILLER_0_24_53
*651 FILLER_0_24_65
*652 FILLER_0_24_77
*653 FILLER_0_24_83
*654 FILLER_0_24_85
*655 FILLER_0_24_97
*656 FILLER_0_25_105
*657 FILLER_0_25_111
*658 FILLER_0_25_113
*659 FILLER_0_25_125
*660 FILLER_0_25_137
*661 FILLER_0_25_149
*662 FILLER_0_25_15
*663 FILLER_0_25_161
*664 FILLER_0_25_167
*665 FILLER_0_25_169
*666 FILLER_0_25_181
*667 FILLER_0_25_193
*668 FILLER_0_25_205
*669 FILLER_0_25_217
*670 FILLER_0_25_223
*671 FILLER_0_25_225
*672 FILLER_0_25_237
*673 FILLER_0_25_249
*674 FILLER_0_25_261
*675 FILLER_0_25_27
*676 FILLER_0_25_273
*677 FILLER_0_25_279
*678 FILLER_0_25_281
*679 FILLER_0_25_293
*680 FILLER_0_25_3
*681 FILLER_0_25_305
*682 FILLER_0_25_317
*683 FILLER_0_25_329
*684 FILLER_0_25_39
*685 FILLER_0_25_51
*686 FILLER_0_25_55
*687 FILLER_0_25_57
*688 FILLER_0_25_69
*689 FILLER_0_25_81
*690 FILLER_0_25_93
*691 FILLER_0_26_109
*692 FILLER_0_26_121
*693 FILLER_0_26_133
*694 FILLER_0_26_139
*695 FILLER_0_26_141
*696 FILLER_0_26_15
*697 FILLER_0_26_153
*698 FILLER_0_26_165
*699 FILLER_0_26_177
*700 FILLER_0_26_189
*701 FILLER_0_26_195
*702 FILLER_0_26_197
*703 FILLER_0_26_209
*704 FILLER_0_26_221
*705 FILLER_0_26_233
*706 FILLER_0_26_245
*707 FILLER_0_26_251
*708 FILLER_0_26_253
*709 FILLER_0_26_265
*710 FILLER_0_26_27
*711 FILLER_0_26_277
*712 FILLER_0_26_289
*713 FILLER_0_26_29
*714 FILLER_0_26_3
*715 FILLER_0_26_301
*716 FILLER_0_26_307
*717 FILLER_0_26_309
*718 FILLER_0_26_321
*719 FILLER_0_26_333
*720 FILLER_0_26_41
*721 FILLER_0_26_53
*722 FILLER_0_26_65
*723 FILLER_0_26_77
*724 FILLER_0_26_83
*725 FILLER_0_26_85
*726 FILLER_0_26_97
*727 FILLER_0_27_105
*728 FILLER_0_27_111
*729 FILLER_0_27_113
*730 FILLER_0_27_125
*731 FILLER_0_27_137
*732 FILLER_0_27_149
*733 FILLER_0_27_15
*734 FILLER_0_27_161
*735 FILLER_0_27_167
*736 FILLER_0_27_169
*737 FILLER_0_27_181
*738 FILLER_0_27_193
*739 FILLER_0_27_205
*740 FILLER_0_27_217
*741 FILLER_0_27_223
*742 FILLER_0_27_225
*743 FILLER_0_27_237
*744 FILLER_0_27_249
*745 FILLER_0_27_261
*746 FILLER_0_27_27
*747 FILLER_0_27_273
*748 FILLER_0_27_279
*749 FILLER_0_27_281
*750 FILLER_0_27_293
*751 FILLER_0_27_3
*752 FILLER_0_27_305
*753 FILLER_0_27_317
*754 FILLER_0_27_329
*755 FILLER_0_27_39
*756 FILLER_0_27_51
*757 FILLER_0_27_55
*758 FILLER_0_27_57
*759 FILLER_0_27_69
*760 FILLER_0_27_81
*761 FILLER_0_27_93
*762 FILLER_0_28_109
*763 FILLER_0_28_121
*764 FILLER_0_28_133
*765 FILLER_0_28_139
*766 FILLER_0_28_141
*767 FILLER_0_28_15
*768 FILLER_0_28_153
*769 FILLER_0_28_165
*770 FILLER_0_28_177
*771 FILLER_0_28_189
*772 FILLER_0_28_195
*773 FILLER_0_28_197
*774 FILLER_0_28_209
*775 FILLER_0_28_221
*776 FILLER_0_28_233
*777 FILLER_0_28_245
*778 FILLER_0_28_251
*779 FILLER_0_28_253
*780 FILLER_0_28_265
*781 FILLER_0_28_27
*782 FILLER_0_28_277
*783 FILLER_0_28_289
*784 FILLER_0_28_29
*785 FILLER_0_28_3
*786 FILLER_0_28_301
*787 FILLER_0_28_307
*788 FILLER_0_28_309
*789 FILLER_0_28_321
*790 FILLER_0_28_333
*791 FILLER_0_28_41
*792 FILLER_0_28_53
*793 FILLER_0_28_65
*794 FILLER_0_28_77
*795 FILLER_0_28_83
*796 FILLER_0_28_85
*797 FILLER_0_28_97
*798 FILLER_0_29_105
*799 FILLER_0_29_111
*800 FILLER_0_29_113
*801 FILLER_0_29_125
*802 FILLER_0_29_137
*803 FILLER_0_29_149
*804 FILLER_0_29_15
*805 FILLER_0_29_161
*806 FILLER_0_29_167
*807 FILLER_0_29_169
*808 FILLER_0_29_181
*809 FILLER_0_29_193
*810 FILLER_0_29_205
*811 FILLER_0_29_217
*812 FILLER_0_29_223
*813 FILLER_0_29_225
*814 FILLER_0_29_237
*815 FILLER_0_29_249
*816 FILLER_0_29_261
*817 FILLER_0_29_27
*818 FILLER_0_29_273
*819 FILLER_0_29_279
*820 FILLER_0_29_281
*821 FILLER_0_29_293
*822 FILLER_0_29_3
*823 FILLER_0_29_305
*824 FILLER_0_29_317
*825 FILLER_0_29_329
*826 FILLER_0_29_39
*827 FILLER_0_29_51
*828 FILLER_0_29_55
*829 FILLER_0_29_57
*830 FILLER_0_29_69
*831 FILLER_0_29_81
*832 FILLER_0_29_93
*833 FILLER_0_2_109
*834 FILLER_0_2_121
*835 FILLER_0_2_133
*836 FILLER_0_2_139
*837 FILLER_0_2_141
*838 FILLER_0_2_15
*839 FILLER_0_2_153
*840 FILLER_0_2_165
*841 FILLER_0_2_177
*842 FILLER_0_2_189
*843 FILLER_0_2_195
*844 FILLER_0_2_197
*845 FILLER_0_2_209
*846 FILLER_0_2_221
*847 FILLER_0_2_233
*848 FILLER_0_2_245
*849 FILLER_0_2_251
*850 FILLER_0_2_253
*851 FILLER_0_2_265
*852 FILLER_0_2_27
*853 FILLER_0_2_277
*854 FILLER_0_2_289
*855 FILLER_0_2_29
*856 FILLER_0_2_3
*857 FILLER_0_2_301
*858 FILLER_0_2_307
*859 FILLER_0_2_309
*860 FILLER_0_2_321
*861 FILLER_0_2_333
*862 FILLER_0_2_41
*863 FILLER_0_2_53
*864 FILLER_0_2_65
*865 FILLER_0_2_77
*866 FILLER_0_2_83
*867 FILLER_0_2_85
*868 FILLER_0_2_97
*869 FILLER_0_30_109
*870 FILLER_0_30_121
*871 FILLER_0_30_133
*872 FILLER_0_30_139
*873 FILLER_0_30_141
*874 FILLER_0_30_15
*875 FILLER_0_30_153
*876 FILLER_0_30_165
*877 FILLER_0_30_177
*878 FILLER_0_30_189
*879 FILLER_0_30_195
*880 FILLER_0_30_197
*881 FILLER_0_30_209
*882 FILLER_0_30_221
*883 FILLER_0_30_233
*884 FILLER_0_30_245
*885 FILLER_0_30_251
*886 FILLER_0_30_253
*887 FILLER_0_30_265
*888 FILLER_0_30_27
*889 FILLER_0_30_277
*890 FILLER_0_30_289
*891 FILLER_0_30_29
*892 FILLER_0_30_3
*893 FILLER_0_30_301
*894 FILLER_0_30_307
*895 FILLER_0_30_309
*896 FILLER_0_30_321
*897 FILLER_0_30_333
*898 FILLER_0_30_41
*899 FILLER_0_30_53
*900 FILLER_0_30_65
*901 FILLER_0_30_77
*902 FILLER_0_30_83
*903 FILLER_0_30_85
*904 FILLER_0_30_97
*905 FILLER_0_31_105
*906 FILLER_0_31_111
*907 FILLER_0_31_113
*908 FILLER_0_31_125
*909 FILLER_0_31_137
*910 FILLER_0_31_149
*911 FILLER_0_31_15
*912 FILLER_0_31_161
*913 FILLER_0_31_167
*914 FILLER_0_31_169
*915 FILLER_0_31_181
*916 FILLER_0_31_193
*917 FILLER_0_31_205
*918 FILLER_0_31_217
*919 FILLER_0_31_223
*920 FILLER_0_31_225
*921 FILLER_0_31_237
*922 FILLER_0_31_249
*923 FILLER_0_31_261
*924 FILLER_0_31_27
*925 FILLER_0_31_273
*926 FILLER_0_31_279
*927 FILLER_0_31_281
*928 FILLER_0_31_293
*929 FILLER_0_31_3
*930 FILLER_0_31_305
*931 FILLER_0_31_317
*932 FILLER_0_31_329
*933 FILLER_0_31_39
*934 FILLER_0_31_51
*935 FILLER_0_31_55
*936 FILLER_0_31_57
*937 FILLER_0_31_69
*938 FILLER_0_31_81
*939 FILLER_0_31_93
*940 FILLER_0_32_109
*941 FILLER_0_32_121
*942 FILLER_0_32_133
*943 FILLER_0_32_139
*944 FILLER_0_32_141
*945 FILLER_0_32_15
*946 FILLER_0_32_153
*947 FILLER_0_32_165
*948 FILLER_0_32_177
*949 FILLER_0_32_189
*950 FILLER_0_32_195
*951 FILLER_0_32_197
*952 FILLER_0_32_209
*953 FILLER_0_32_221
*954 FILLER_0_32_233
*955 FILLER_0_32_245
*956 FILLER_0_32_251
*957 FILLER_0_32_253
*958 FILLER_0_32_265
*959 FILLER_0_32_27
*960 FILLER_0_32_277
*961 FILLER_0_32_289
*962 FILLER_0_32_29
*963 FILLER_0_32_3
*964 FILLER_0_32_301
*965 FILLER_0_32_307
*966 FILLER_0_32_309
*967 FILLER_0_32_321
*968 FILLER_0_32_333
*969 FILLER_0_32_41
*970 FILLER_0_32_53
*971 FILLER_0_32_65
*972 FILLER_0_32_77
*973 FILLER_0_32_83
*974 FILLER_0_32_85
*975 FILLER_0_32_97
*976 FILLER_0_33_105
*977 FILLER_0_33_111
*978 FILLER_0_33_113
*979 FILLER_0_33_125
*980 FILLER_0_33_137
*981 FILLER_0_33_149
*982 FILLER_0_33_15
*983 FILLER_0_33_161
*984 FILLER_0_33_167
*985 FILLER_0_33_169
*986 FILLER_0_33_181
*987 FILLER_0_33_193
*988 FILLER_0_33_205
*989 FILLER_0_33_217
*990 FILLER_0_33_223
*991 FILLER_0_33_225
*992 FILLER_0_33_237
*993 FILLER_0_33_249
*994 FILLER_0_33_261
*995 FILLER_0_33_27
*996 FILLER_0_33_273
*997 FILLER_0_33_279
*998 FILLER_0_33_281
*999 FILLER_0_33_293
*1000 FILLER_0_33_3
*1001 FILLER_0_33_305
*1002 FILLER_0_33_317
*1003 FILLER_0_33_329
*1004 FILLER_0_33_39
*1005 FILLER_0_33_51
*1006 FILLER_0_33_55
*1007 FILLER_0_33_57
*1008 FILLER_0_33_69
*1009 FILLER_0_33_81
*1010 FILLER_0_33_93
*1011 FILLER_0_34_109
*1012 FILLER_0_34_121
*1013 FILLER_0_34_133
*1014 FILLER_0_34_139
*1015 FILLER_0_34_141
*1016 FILLER_0_34_15
*1017 FILLER_0_34_153
*1018 FILLER_0_34_165
*1019 FILLER_0_34_177
*1020 FILLER_0_34_189
*1021 FILLER_0_34_195
*1022 FILLER_0_34_197
*1023 FILLER_0_34_209
*1024 FILLER_0_34_221
*1025 FILLER_0_34_233
*1026 FILLER_0_34_245
*1027 FILLER_0_34_251
*1028 FILLER_0_34_253
*1029 FILLER_0_34_265
*1030 FILLER_0_34_27
*1031 FILLER_0_34_277
*1032 FILLER_0_34_289
*1033 FILLER_0_34_29
*1034 FILLER_0_34_3
*1035 FILLER_0_34_301
*1036 FILLER_0_34_307
*1037 FILLER_0_34_309
*1038 FILLER_0_34_321
*1039 FILLER_0_34_333
*1040 FILLER_0_34_41
*1041 FILLER_0_34_53
*1042 FILLER_0_34_65
*1043 FILLER_0_34_77
*1044 FILLER_0_34_83
*1045 FILLER_0_34_85
*1046 FILLER_0_34_97
*1047 FILLER_0_35_105
*1048 FILLER_0_35_111
*1049 FILLER_0_35_113
*1050 FILLER_0_35_125
*1051 FILLER_0_35_137
*1052 FILLER_0_35_149
*1053 FILLER_0_35_15
*1054 FILLER_0_35_161
*1055 FILLER_0_35_167
*1056 FILLER_0_35_169
*1057 FILLER_0_35_181
*1058 FILLER_0_35_193
*1059 FILLER_0_35_205
*1060 FILLER_0_35_217
*1061 FILLER_0_35_223
*1062 FILLER_0_35_225
*1063 FILLER_0_35_237
*1064 FILLER_0_35_249
*1065 FILLER_0_35_261
*1066 FILLER_0_35_27
*1067 FILLER_0_35_273
*1068 FILLER_0_35_279
*1069 FILLER_0_35_281
*1070 FILLER_0_35_293
*1071 FILLER_0_35_3
*1072 FILLER_0_35_305
*1073 FILLER_0_35_317
*1074 FILLER_0_35_329
*1075 FILLER_0_35_39
*1076 FILLER_0_35_51
*1077 FILLER_0_35_55
*1078 FILLER_0_35_57
*1079 FILLER_0_35_69
*1080 FILLER_0_35_81
*1081 FILLER_0_35_93
*1082 FILLER_0_36_109
*1083 FILLER_0_36_121
*1084 FILLER_0_36_133
*1085 FILLER_0_36_139
*1086 FILLER_0_36_141
*1087 FILLER_0_36_15
*1088 FILLER_0_36_153
*1089 FILLER_0_36_165
*1090 FILLER_0_36_177
*1091 FILLER_0_36_189
*1092 FILLER_0_36_195
*1093 FILLER_0_36_197
*1094 FILLER_0_36_209
*1095 FILLER_0_36_221
*1096 FILLER_0_36_233
*1097 FILLER_0_36_245
*1098 FILLER_0_36_251
*1099 FILLER_0_36_253
*1100 FILLER_0_36_265
*1101 FILLER_0_36_27
*1102 FILLER_0_36_277
*1103 FILLER_0_36_289
*1104 FILLER_0_36_29
*1105 FILLER_0_36_3
*1106 FILLER_0_36_301
*1107 FILLER_0_36_307
*1108 FILLER_0_36_309
*1109 FILLER_0_36_321
*1110 FILLER_0_36_333
*1111 FILLER_0_36_41
*1112 FILLER_0_36_53
*1113 FILLER_0_36_65
*1114 FILLER_0_36_77
*1115 FILLER_0_36_83
*1116 FILLER_0_36_85
*1117 FILLER_0_36_97
*1118 FILLER_0_37_105
*1119 FILLER_0_37_111
*1120 FILLER_0_37_113
*1121 FILLER_0_37_125
*1122 FILLER_0_37_137
*1123 FILLER_0_37_149
*1124 FILLER_0_37_15
*1125 FILLER_0_37_161
*1126 FILLER_0_37_167
*1127 FILLER_0_37_169
*1128 FILLER_0_37_181
*1129 FILLER_0_37_193
*1130 FILLER_0_37_205
*1131 FILLER_0_37_217
*1132 FILLER_0_37_223
*1133 FILLER_0_37_225
*1134 FILLER_0_37_237
*1135 FILLER_0_37_249
*1136 FILLER_0_37_261
*1137 FILLER_0_37_27
*1138 FILLER_0_37_273
*1139 FILLER_0_37_279
*1140 FILLER_0_37_281
*1141 FILLER_0_37_293
*1142 FILLER_0_37_3
*1143 FILLER_0_37_305
*1144 FILLER_0_37_317
*1145 FILLER_0_37_329
*1146 FILLER_0_37_39
*1147 FILLER_0_37_51
*1148 FILLER_0_37_55
*1149 FILLER_0_37_57
*1150 FILLER_0_37_69
*1151 FILLER_0_37_81
*1152 FILLER_0_37_93
*1153 FILLER_0_38_10
*1154 FILLER_0_38_102
*1155 FILLER_0_38_106
*1156 FILLER_0_38_110
*1157 FILLER_0_38_113
*1158 FILLER_0_38_118
*1159 FILLER_0_38_122
*1160 FILLER_0_38_126
*1161 FILLER_0_38_14
*1162 FILLER_0_38_141
*1163 FILLER_0_38_148
*1164 FILLER_0_38_152
*1165 FILLER_0_38_157
*1166 FILLER_0_38_164
*1167 FILLER_0_38_169
*1168 FILLER_0_38_18
*1169 FILLER_0_38_183
*1170 FILLER_0_38_188
*1171 FILLER_0_38_197
*1172 FILLER_0_38_209
*1173 FILLER_0_38_22
*1174 FILLER_0_38_221
*1175 FILLER_0_38_225
*1176 FILLER_0_38_238
*1177 FILLER_0_38_250
*1178 FILLER_0_38_253
*1179 FILLER_0_38_262
*1180 FILLER_0_38_266
*1181 FILLER_0_38_270
*1182 FILLER_0_38_278
*1183 FILLER_0_38_281
*1184 FILLER_0_38_289
*1185 FILLER_0_38_294
*1186 FILLER_0_38_298
*1187 FILLER_0_38_302
*1188 FILLER_0_38_309
*1189 FILLER_0_38_32
*1190 FILLER_0_38_321
*1191 FILLER_0_38_333
*1192 FILLER_0_38_38
*1193 FILLER_0_38_42
*1194 FILLER_0_38_46
*1195 FILLER_0_38_50
*1196 FILLER_0_38_54
*1197 FILLER_0_38_57
*1198 FILLER_0_38_6
*1199 FILLER_0_38_62
*1200 FILLER_0_38_66
*1201 FILLER_0_38_70
*1202 FILLER_0_38_74
*1203 FILLER_0_38_78
*1204 FILLER_0_38_88
*1205 FILLER_0_38_94
*1206 FILLER_0_38_98
*1207 FILLER_0_3_105
*1208 FILLER_0_3_111
*1209 FILLER_0_3_113
*1210 FILLER_0_3_125
*1211 FILLER_0_3_137
*1212 FILLER_0_3_149
*1213 FILLER_0_3_15
*1214 FILLER_0_3_161
*1215 FILLER_0_3_167
*1216 FILLER_0_3_169
*1217 FILLER_0_3_181
*1218 FILLER_0_3_193
*1219 FILLER_0_3_205
*1220 FILLER_0_3_217
*1221 FILLER_0_3_223
*1222 FILLER_0_3_225
*1223 FILLER_0_3_237
*1224 FILLER_0_3_249
*1225 FILLER_0_3_261
*1226 FILLER_0_3_27
*1227 FILLER_0_3_273
*1228 FILLER_0_3_279
*1229 FILLER_0_3_281
*1230 FILLER_0_3_293
*1231 FILLER_0_3_3
*1232 FILLER_0_3_305
*1233 FILLER_0_3_317
*1234 FILLER_0_3_329
*1235 FILLER_0_3_39
*1236 FILLER_0_3_51
*1237 FILLER_0_3_55
*1238 FILLER_0_3_57
*1239 FILLER_0_3_69
*1240 FILLER_0_3_81
*1241 FILLER_0_3_93
*1242 FILLER_0_4_109
*1243 FILLER_0_4_121
*1244 FILLER_0_4_133
*1245 FILLER_0_4_139
*1246 FILLER_0_4_141
*1247 FILLER_0_4_15
*1248 FILLER_0_4_153
*1249 FILLER_0_4_165
*1250 FILLER_0_4_177
*1251 FILLER_0_4_189
*1252 FILLER_0_4_195
*1253 FILLER_0_4_197
*1254 FILLER_0_4_209
*1255 FILLER_0_4_221
*1256 FILLER_0_4_233
*1257 FILLER_0_4_245
*1258 FILLER_0_4_251
*1259 FILLER_0_4_253
*1260 FILLER_0_4_265
*1261 FILLER_0_4_27
*1262 FILLER_0_4_277
*1263 FILLER_0_4_289
*1264 FILLER_0_4_29
*1265 FILLER_0_4_3
*1266 FILLER_0_4_301
*1267 FILLER_0_4_307
*1268 FILLER_0_4_309
*1269 FILLER_0_4_321
*1270 FILLER_0_4_333
*1271 FILLER_0_4_41
*1272 FILLER_0_4_53
*1273 FILLER_0_4_65
*1274 FILLER_0_4_77
*1275 FILLER_0_4_83
*1276 FILLER_0_4_85
*1277 FILLER_0_4_97
*1278 FILLER_0_5_105
*1279 FILLER_0_5_111
*1280 FILLER_0_5_113
*1281 FILLER_0_5_125
*1282 FILLER_0_5_137
*1283 FILLER_0_5_149
*1284 FILLER_0_5_15
*1285 FILLER_0_5_161
*1286 FILLER_0_5_167
*1287 FILLER_0_5_169
*1288 FILLER_0_5_181
*1289 FILLER_0_5_193
*1290 FILLER_0_5_205
*1291 FILLER_0_5_217
*1292 FILLER_0_5_223
*1293 FILLER_0_5_225
*1294 FILLER_0_5_237
*1295 FILLER_0_5_249
*1296 FILLER_0_5_261
*1297 FILLER_0_5_27
*1298 FILLER_0_5_273
*1299 FILLER_0_5_279
*1300 FILLER_0_5_281
*1301 FILLER_0_5_293
*1302 FILLER_0_5_3
*1303 FILLER_0_5_305
*1304 FILLER_0_5_317
*1305 FILLER_0_5_329
*1306 FILLER_0_5_39
*1307 FILLER_0_5_51
*1308 FILLER_0_5_55
*1309 FILLER_0_5_57
*1310 FILLER_0_5_69
*1311 FILLER_0_5_81
*1312 FILLER_0_5_93
*1313 FILLER_0_6_109
*1314 FILLER_0_6_121
*1315 FILLER_0_6_133
*1316 FILLER_0_6_139
*1317 FILLER_0_6_141
*1318 FILLER_0_6_15
*1319 FILLER_0_6_153
*1320 FILLER_0_6_165
*1321 FILLER_0_6_177
*1322 FILLER_0_6_189
*1323 FILLER_0_6_195
*1324 FILLER_0_6_197
*1325 FILLER_0_6_209
*1326 FILLER_0_6_221
*1327 FILLER_0_6_233
*1328 FILLER_0_6_245
*1329 FILLER_0_6_251
*1330 FILLER_0_6_253
*1331 FILLER_0_6_265
*1332 FILLER_0_6_27
*1333 FILLER_0_6_277
*1334 FILLER_0_6_289
*1335 FILLER_0_6_29
*1336 FILLER_0_6_3
*1337 FILLER_0_6_301
*1338 FILLER_0_6_307
*1339 FILLER_0_6_309
*1340 FILLER_0_6_321
*1341 FILLER_0_6_333
*1342 FILLER_0_6_41
*1343 FILLER_0_6_53
*1344 FILLER_0_6_65
*1345 FILLER_0_6_77
*1346 FILLER_0_6_83
*1347 FILLER_0_6_85
*1348 FILLER_0_6_97
*1349 FILLER_0_7_105
*1350 FILLER_0_7_111
*1351 FILLER_0_7_113
*1352 FILLER_0_7_125
*1353 FILLER_0_7_137
*1354 FILLER_0_7_149
*1355 FILLER_0_7_15
*1356 FILLER_0_7_161
*1357 FILLER_0_7_167
*1358 FILLER_0_7_169
*1359 FILLER_0_7_181
*1360 FILLER_0_7_193
*1361 FILLER_0_7_205
*1362 FILLER_0_7_217
*1363 FILLER_0_7_223
*1364 FILLER_0_7_225
*1365 FILLER_0_7_237
*1366 FILLER_0_7_249
*1367 FILLER_0_7_261
*1368 FILLER_0_7_27
*1369 FILLER_0_7_273
*1370 FILLER_0_7_279
*1371 FILLER_0_7_281
*1372 FILLER_0_7_293
*1373 FILLER_0_7_3
*1374 FILLER_0_7_305
*1375 FILLER_0_7_317
*1376 FILLER_0_7_329
*1377 FILLER_0_7_39
*1378 FILLER_0_7_51
*1379 FILLER_0_7_55
*1380 FILLER_0_7_57
*1381 FILLER_0_7_69
*1382 FILLER_0_7_81
*1383 FILLER_0_7_93
*1384 FILLER_0_8_109
*1385 FILLER_0_8_121
*1386 FILLER_0_8_133
*1387 FILLER_0_8_139
*1388 FILLER_0_8_141
*1389 FILLER_0_8_15
*1390 FILLER_0_8_153
*1391 FILLER_0_8_165
*1392 FILLER_0_8_177
*1393 FILLER_0_8_189
*1394 FILLER_0_8_195
*1395 FILLER_0_8_197
*1396 FILLER_0_8_209
*1397 FILLER_0_8_221
*1398 FILLER_0_8_233
*1399 FILLER_0_8_245
*1400 FILLER_0_8_251
*1401 FILLER_0_8_253
*1402 FILLER_0_8_265
*1403 FILLER_0_8_27
*1404 FILLER_0_8_277
*1405 FILLER_0_8_289
*1406 FILLER_0_8_29
*1407 FILLER_0_8_3
*1408 FILLER_0_8_301
*1409 FILLER_0_8_307
*1410 FILLER_0_8_309
*1411 FILLER_0_8_321
*1412 FILLER_0_8_333
*1413 FILLER_0_8_41
*1414 FILLER_0_8_53
*1415 FILLER_0_8_65
*1416 FILLER_0_8_77
*1417 FILLER_0_8_83
*1418 FILLER_0_8_85
*1419 FILLER_0_8_97
*1420 FILLER_0_9_105
*1421 FILLER_0_9_111
*1422 FILLER_0_9_113
*1423 FILLER_0_9_125
*1424 FILLER_0_9_137
*1425 FILLER_0_9_149
*1426 FILLER_0_9_15
*1427 FILLER_0_9_161
*1428 FILLER_0_9_167
*1429 FILLER_0_9_169
*1430 FILLER_0_9_181
*1431 FILLER_0_9_193
*1432 FILLER_0_9_205
*1433 FILLER_0_9_217
*1434 FILLER_0_9_223
*1435 FILLER_0_9_225
*1436 FILLER_0_9_237
*1437 FILLER_0_9_249
*1438 FILLER_0_9_261
*1439 FILLER_0_9_27
*1440 FILLER_0_9_273
*1441 FILLER_0_9_279
*1442 FILLER_0_9_281
*1443 FILLER_0_9_293
*1444 FILLER_0_9_3
*1445 FILLER_0_9_305
*1446 FILLER_0_9_317
*1447 FILLER_0_9_329
*1448 FILLER_0_9_39
*1449 FILLER_0_9_51
*1450 FILLER_0_9_55
*1451 FILLER_0_9_57
*1452 FILLER_0_9_69
*1453 FILLER_0_9_81
*1454 FILLER_0_9_93