*SPEF "ieee 1481-1999"
*DESIGN "tt_um_wokwi_394898807123828737"
*DATE "15:37:02 Friday April 12, 2024"
*VENDOR "The OpenROAD Project"
*PROGRAM "OpenROAD"
*VERSION "0889970d1790a2617e69f253221b8bd7626e51dc"
*DESIGN_FLOW "NAME_SCOPE LOCAL" "PIN_CAP NONE"
*DIVIDER /
*DELIMITER :
*BUS_DELIMITER []
*T_UNIT 1 NS
*C_UNIT 1 PF
*R_UNIT 1 OHM
*L_UNIT 1 HENRY

*NAME_MAP
*3 clk
*4 ena
*5 rst_n
*6 ui_in[0]
*7 ui_in[1]
*8 ui_in[2]
*9 ui_in[3]
*10 ui_in[4]
*11 ui_in[5]
*12 ui_in[6]
*13 ui_in[7]
*14 uio_in[0]
*15 uio_in[1]
*16 uio_in[2]
*17 uio_in[3]
*18 uio_in[4]
*19 uio_in[5]
*20 uio_in[6]
*21 uio_in[7]
*22 net10
*23 net11
*24 net12
*25 net13
*26 net14
*27 net15
*28 net16
*29 net17
*30 net18
*31 net19
*32 net20
*33 net21
*34 net22
*35 net23
*36 net24
*37 net25
*38 uo_out[0]
*39 uo_out[1]
*40 uo_out[2]
*41 uo_out[3]
*42 uo_out[4]
*43 uo_out[5]
*44 uo_out[6]
*45 net26
*46 _00_
*47 _01_
*48 _02_
*49 _03_
*50 _04_
*51 _05_
*52 _06_
*53 _07_
*54 _08_
*55 _09_
*56 _10_
*57 _11_
*58 _12_
*59 _13_
*60 and13\.a
*61 and13\.b
*62 and13\.out
*63 and2\.out
*64 and3\.b
*65 and3\.out
*66 and4\.b
*67 and4\.out
*68 and5\.b
*69 and5\.out
*70 clknet_0_clk
*71 clknet_1_0__leaf_clk
*72 clknet_1_1__leaf_clk
*73 flop1\.d
*74 flop1\.q
*75 flop10\.d
*76 flop10\.q
*77 flop11\.d
*78 flop11\.q
*79 flop12\.d
*80 flop5\.q
*81 flop6\.d
*82 flop6\.q
*83 flop7\.d
*84 flop7\.q
*85 flop8\.d
*86 flop9\.d
*87 flop9\.q
*88 net1
*89 net2
*90 net27
*91 net28
*92 net29
*93 net3
*94 net30
*95 net31
*96 net32
*97 net33
*98 net34
*99 net35
*100 net36
*101 net37
*102 net38
*103 net4
*104 net5
*105 net6
*106 net7
*107 net8
*108 net9
*109 FILLER_0_0_109
*110 FILLER_0_0_113
*111 FILLER_0_0_125
*112 FILLER_0_0_137
*113 FILLER_0_0_141
*114 FILLER_0_0_15
*115 FILLER_0_0_153
*116 FILLER_0_0_165
*117 FILLER_0_0_169
*118 FILLER_0_0_181
*119 FILLER_0_0_193
*120 FILLER_0_0_197
*121 FILLER_0_0_209
*122 FILLER_0_0_221
*123 FILLER_0_0_225
*124 FILLER_0_0_237
*125 FILLER_0_0_249
*126 FILLER_0_0_253
*127 FILLER_0_0_265
*128 FILLER_0_0_27
*129 FILLER_0_0_277
*130 FILLER_0_0_281
*131 FILLER_0_0_29
*132 FILLER_0_0_293
*133 FILLER_0_0_3
*134 FILLER_0_0_305
*135 FILLER_0_0_309
*136 FILLER_0_0_321
*137 FILLER_0_0_333
*138 FILLER_0_0_41
*139 FILLER_0_0_53
*140 FILLER_0_0_57
*141 FILLER_0_0_69
*142 FILLER_0_0_81
*143 FILLER_0_0_85
*144 FILLER_0_0_97
*145 FILLER_0_10_109
*146 FILLER_0_10_121
*147 FILLER_0_10_133
*148 FILLER_0_10_139
*149 FILLER_0_10_141
*150 FILLER_0_10_15
*151 FILLER_0_10_153
*152 FILLER_0_10_165
*153 FILLER_0_10_177
*154 FILLER_0_10_189
*155 FILLER_0_10_195
*156 FILLER_0_10_197
*157 FILLER_0_10_209
*158 FILLER_0_10_221
*159 FILLER_0_10_233
*160 FILLER_0_10_245
*161 FILLER_0_10_251
*162 FILLER_0_10_253
*163 FILLER_0_10_265
*164 FILLER_0_10_27
*165 FILLER_0_10_277
*166 FILLER_0_10_289
*167 FILLER_0_10_29
*168 FILLER_0_10_3
*169 FILLER_0_10_301
*170 FILLER_0_10_307
*171 FILLER_0_10_309
*172 FILLER_0_10_321
*173 FILLER_0_10_333
*174 FILLER_0_10_41
*175 FILLER_0_10_53
*176 FILLER_0_10_65
*177 FILLER_0_10_77
*178 FILLER_0_10_83
*179 FILLER_0_10_85
*180 FILLER_0_10_97
*181 FILLER_0_11_105
*182 FILLER_0_11_111
*183 FILLER_0_11_113
*184 FILLER_0_11_125
*185 FILLER_0_11_137
*186 FILLER_0_11_149
*187 FILLER_0_11_15
*188 FILLER_0_11_161
*189 FILLER_0_11_167
*190 FILLER_0_11_169
*191 FILLER_0_11_181
*192 FILLER_0_11_193
*193 FILLER_0_11_205
*194 FILLER_0_11_217
*195 FILLER_0_11_223
*196 FILLER_0_11_225
*197 FILLER_0_11_237
*198 FILLER_0_11_249
*199 FILLER_0_11_261
*200 FILLER_0_11_27
*201 FILLER_0_11_273
*202 FILLER_0_11_279
*203 FILLER_0_11_281
*204 FILLER_0_11_293
*205 FILLER_0_11_3
*206 FILLER_0_11_305
*207 FILLER_0_11_317
*208 FILLER_0_11_329
*209 FILLER_0_11_39
*210 FILLER_0_11_51
*211 FILLER_0_11_55
*212 FILLER_0_11_57
*213 FILLER_0_11_69
*214 FILLER_0_11_81
*215 FILLER_0_11_93
*216 FILLER_0_12_109
*217 FILLER_0_12_121
*218 FILLER_0_12_133
*219 FILLER_0_12_139
*220 FILLER_0_12_141
*221 FILLER_0_12_15
*222 FILLER_0_12_153
*223 FILLER_0_12_165
*224 FILLER_0_12_177
*225 FILLER_0_12_189
*226 FILLER_0_12_195
*227 FILLER_0_12_197
*228 FILLER_0_12_209
*229 FILLER_0_12_221
*230 FILLER_0_12_233
*231 FILLER_0_12_245
*232 FILLER_0_12_251
*233 FILLER_0_12_253
*234 FILLER_0_12_265
*235 FILLER_0_12_27
*236 FILLER_0_12_277
*237 FILLER_0_12_289
*238 FILLER_0_12_29
*239 FILLER_0_12_3
*240 FILLER_0_12_301
*241 FILLER_0_12_307
*242 FILLER_0_12_309
*243 FILLER_0_12_321
*244 FILLER_0_12_333
*245 FILLER_0_12_41
*246 FILLER_0_12_53
*247 FILLER_0_12_65
*248 FILLER_0_12_77
*249 FILLER_0_12_83
*250 FILLER_0_12_85
*251 FILLER_0_12_97
*252 FILLER_0_13_105
*253 FILLER_0_13_111
*254 FILLER_0_13_113
*255 FILLER_0_13_125
*256 FILLER_0_13_137
*257 FILLER_0_13_149
*258 FILLER_0_13_15
*259 FILLER_0_13_161
*260 FILLER_0_13_167
*261 FILLER_0_13_169
*262 FILLER_0_13_181
*263 FILLER_0_13_193
*264 FILLER_0_13_205
*265 FILLER_0_13_217
*266 FILLER_0_13_223
*267 FILLER_0_13_225
*268 FILLER_0_13_237
*269 FILLER_0_13_249
*270 FILLER_0_13_261
*271 FILLER_0_13_27
*272 FILLER_0_13_273
*273 FILLER_0_13_279
*274 FILLER_0_13_281
*275 FILLER_0_13_293
*276 FILLER_0_13_3
*277 FILLER_0_13_305
*278 FILLER_0_13_317
*279 FILLER_0_13_329
*280 FILLER_0_13_39
*281 FILLER_0_13_51
*282 FILLER_0_13_55
*283 FILLER_0_13_57
*284 FILLER_0_13_69
*285 FILLER_0_13_81
*286 FILLER_0_13_93
*287 FILLER_0_14_109
*288 FILLER_0_14_121
*289 FILLER_0_14_133
*290 FILLER_0_14_139
*291 FILLER_0_14_141
*292 FILLER_0_14_15
*293 FILLER_0_14_153
*294 FILLER_0_14_165
*295 FILLER_0_14_177
*296 FILLER_0_14_189
*297 FILLER_0_14_195
*298 FILLER_0_14_197
*299 FILLER_0_14_209
*300 FILLER_0_14_221
*301 FILLER_0_14_233
*302 FILLER_0_14_245
*303 FILLER_0_14_251
*304 FILLER_0_14_253
*305 FILLER_0_14_265
*306 FILLER_0_14_27
*307 FILLER_0_14_277
*308 FILLER_0_14_289
*309 FILLER_0_14_29
*310 FILLER_0_14_3
*311 FILLER_0_14_301
*312 FILLER_0_14_307
*313 FILLER_0_14_309
*314 FILLER_0_14_321
*315 FILLER_0_14_333
*316 FILLER_0_14_41
*317 FILLER_0_14_53
*318 FILLER_0_14_65
*319 FILLER_0_14_77
*320 FILLER_0_14_83
*321 FILLER_0_14_85
*322 FILLER_0_14_97
*323 FILLER_0_15_105
*324 FILLER_0_15_111
*325 FILLER_0_15_113
*326 FILLER_0_15_125
*327 FILLER_0_15_137
*328 FILLER_0_15_149
*329 FILLER_0_15_15
*330 FILLER_0_15_161
*331 FILLER_0_15_167
*332 FILLER_0_15_169
*333 FILLER_0_15_181
*334 FILLER_0_15_193
*335 FILLER_0_15_205
*336 FILLER_0_15_217
*337 FILLER_0_15_223
*338 FILLER_0_15_225
*339 FILLER_0_15_237
*340 FILLER_0_15_249
*341 FILLER_0_15_261
*342 FILLER_0_15_27
*343 FILLER_0_15_273
*344 FILLER_0_15_279
*345 FILLER_0_15_281
*346 FILLER_0_15_293
*347 FILLER_0_15_3
*348 FILLER_0_15_305
*349 FILLER_0_15_317
*350 FILLER_0_15_329
*351 FILLER_0_15_39
*352 FILLER_0_15_51
*353 FILLER_0_15_55
*354 FILLER_0_15_57
*355 FILLER_0_15_69
*356 FILLER_0_15_81
*357 FILLER_0_15_93
*358 FILLER_0_16_109
*359 FILLER_0_16_121
*360 FILLER_0_16_133
*361 FILLER_0_16_139
*362 FILLER_0_16_141
*363 FILLER_0_16_15
*364 FILLER_0_16_153
*365 FILLER_0_16_165
*366 FILLER_0_16_177
*367 FILLER_0_16_189
*368 FILLER_0_16_195
*369 FILLER_0_16_197
*370 FILLER_0_16_209
*371 FILLER_0_16_221
*372 FILLER_0_16_233
*373 FILLER_0_16_245
*374 FILLER_0_16_251
*375 FILLER_0_16_253
*376 FILLER_0_16_265
*377 FILLER_0_16_27
*378 FILLER_0_16_277
*379 FILLER_0_16_289
*380 FILLER_0_16_29
*381 FILLER_0_16_3
*382 FILLER_0_16_301
*383 FILLER_0_16_307
*384 FILLER_0_16_309
*385 FILLER_0_16_321
*386 FILLER_0_16_333
*387 FILLER_0_16_41
*388 FILLER_0_16_53
*389 FILLER_0_16_65
*390 FILLER_0_16_77
*391 FILLER_0_16_83
*392 FILLER_0_16_85
*393 FILLER_0_16_97
*394 FILLER_0_17_105
*395 FILLER_0_17_111
*396 FILLER_0_17_113
*397 FILLER_0_17_125
*398 FILLER_0_17_137
*399 FILLER_0_17_149
*400 FILLER_0_17_15
*401 FILLER_0_17_161
*402 FILLER_0_17_167
*403 FILLER_0_17_169
*404 FILLER_0_17_181
*405 FILLER_0_17_193
*406 FILLER_0_17_205
*407 FILLER_0_17_217
*408 FILLER_0_17_223
*409 FILLER_0_17_225
*410 FILLER_0_17_237
*411 FILLER_0_17_249
*412 FILLER_0_17_261
*413 FILLER_0_17_27
*414 FILLER_0_17_273
*415 FILLER_0_17_279
*416 FILLER_0_17_281
*417 FILLER_0_17_293
*418 FILLER_0_17_3
*419 FILLER_0_17_305
*420 FILLER_0_17_317
*421 FILLER_0_17_329
*422 FILLER_0_17_39
*423 FILLER_0_17_51
*424 FILLER_0_17_55
*425 FILLER_0_17_57
*426 FILLER_0_17_69
*427 FILLER_0_17_81
*428 FILLER_0_17_93
*429 FILLER_0_18_109
*430 FILLER_0_18_121
*431 FILLER_0_18_133
*432 FILLER_0_18_139
*433 FILLER_0_18_141
*434 FILLER_0_18_15
*435 FILLER_0_18_153
*436 FILLER_0_18_165
*437 FILLER_0_18_177
*438 FILLER_0_18_189
*439 FILLER_0_18_195
*440 FILLER_0_18_197
*441 FILLER_0_18_209
*442 FILLER_0_18_221
*443 FILLER_0_18_233
*444 FILLER_0_18_245
*445 FILLER_0_18_251
*446 FILLER_0_18_253
*447 FILLER_0_18_265
*448 FILLER_0_18_27
*449 FILLER_0_18_277
*450 FILLER_0_18_289
*451 FILLER_0_18_29
*452 FILLER_0_18_3
*453 FILLER_0_18_301
*454 FILLER_0_18_307
*455 FILLER_0_18_309
*456 FILLER_0_18_321
*457 FILLER_0_18_333
*458 FILLER_0_18_41
*459 FILLER_0_18_53
*460 FILLER_0_18_65
*461 FILLER_0_18_77
*462 FILLER_0_18_83
*463 FILLER_0_18_85
*464 FILLER_0_18_97
*465 FILLER_0_19_105
*466 FILLER_0_19_111
*467 FILLER_0_19_113
*468 FILLER_0_19_125
*469 FILLER_0_19_137
*470 FILLER_0_19_149
*471 FILLER_0_19_15
*472 FILLER_0_19_161
*473 FILLER_0_19_167
*474 FILLER_0_19_169
*475 FILLER_0_19_181
*476 FILLER_0_19_193
*477 FILLER_0_19_205
*478 FILLER_0_19_217
*479 FILLER_0_19_223
*480 FILLER_0_19_225
*481 FILLER_0_19_237
*482 FILLER_0_19_249
*483 FILLER_0_19_261
*484 FILLER_0_19_27
*485 FILLER_0_19_273
*486 FILLER_0_19_279
*487 FILLER_0_19_281
*488 FILLER_0_19_293
*489 FILLER_0_19_3
*490 FILLER_0_19_305
*491 FILLER_0_19_317
*492 FILLER_0_19_329
*493 FILLER_0_19_39
*494 FILLER_0_19_51
*495 FILLER_0_19_55
*496 FILLER_0_19_57
*497 FILLER_0_19_69
*498 FILLER_0_19_81
*499 FILLER_0_19_93
*500 FILLER_0_1_105
*501 FILLER_0_1_111
*502 FILLER_0_1_113
*503 FILLER_0_1_125
*504 FILLER_0_1_137
*505 FILLER_0_1_149
*506 FILLER_0_1_15
*507 FILLER_0_1_161
*508 FILLER_0_1_167
*509 FILLER_0_1_169
*510 FILLER_0_1_181
*511 FILLER_0_1_193
*512 FILLER_0_1_205
*513 FILLER_0_1_217
*514 FILLER_0_1_223
*515 FILLER_0_1_225
*516 FILLER_0_1_237
*517 FILLER_0_1_249
*518 FILLER_0_1_261
*519 FILLER_0_1_27
*520 FILLER_0_1_273
*521 FILLER_0_1_279
*522 FILLER_0_1_281
*523 FILLER_0_1_293
*524 FILLER_0_1_3
*525 FILLER_0_1_305
*526 FILLER_0_1_317
*527 FILLER_0_1_329
*528 FILLER_0_1_39
*529 FILLER_0_1_51
*530 FILLER_0_1_55
*531 FILLER_0_1_57
*532 FILLER_0_1_69
*533 FILLER_0_1_81
*534 FILLER_0_1_93
*535 FILLER_0_20_109
*536 FILLER_0_20_121
*537 FILLER_0_20_133
*538 FILLER_0_20_139
*539 FILLER_0_20_141
*540 FILLER_0_20_15
*541 FILLER_0_20_153
*542 FILLER_0_20_165
*543 FILLER_0_20_177
*544 FILLER_0_20_189
*545 FILLER_0_20_195
*546 FILLER_0_20_197
*547 FILLER_0_20_209
*548 FILLER_0_20_221
*549 FILLER_0_20_233
*550 FILLER_0_20_245
*551 FILLER_0_20_251
*552 FILLER_0_20_253
*553 FILLER_0_20_265
*554 FILLER_0_20_27
*555 FILLER_0_20_277
*556 FILLER_0_20_289
*557 FILLER_0_20_29
*558 FILLER_0_20_3
*559 FILLER_0_20_301
*560 FILLER_0_20_307
*561 FILLER_0_20_309
*562 FILLER_0_20_321
*563 FILLER_0_20_333
*564 FILLER_0_20_41
*565 FILLER_0_20_53
*566 FILLER_0_20_65
*567 FILLER_0_20_77
*568 FILLER_0_20_83
*569 FILLER_0_20_85
*570 FILLER_0_20_97
*571 FILLER_0_21_105
*572 FILLER_0_21_111
*573 FILLER_0_21_113
*574 FILLER_0_21_125
*575 FILLER_0_21_137
*576 FILLER_0_21_149
*577 FILLER_0_21_15
*578 FILLER_0_21_161
*579 FILLER_0_21_167
*580 FILLER_0_21_169
*581 FILLER_0_21_181
*582 FILLER_0_21_193
*583 FILLER_0_21_205
*584 FILLER_0_21_217
*585 FILLER_0_21_223
*586 FILLER_0_21_225
*587 FILLER_0_21_237
*588 FILLER_0_21_249
*589 FILLER_0_21_261
*590 FILLER_0_21_27
*591 FILLER_0_21_273
*592 FILLER_0_21_279
*593 FILLER_0_21_281
*594 FILLER_0_21_293
*595 FILLER_0_21_3
*596 FILLER_0_21_305
*597 FILLER_0_21_317
*598 FILLER_0_21_329
*599 FILLER_0_21_39
*600 FILLER_0_21_51
*601 FILLER_0_21_55
*602 FILLER_0_21_57
*603 FILLER_0_21_69
*604 FILLER_0_21_81
*605 FILLER_0_21_93
*606 FILLER_0_22_109
*607 FILLER_0_22_121
*608 FILLER_0_22_133
*609 FILLER_0_22_139
*610 FILLER_0_22_141
*611 FILLER_0_22_15
*612 FILLER_0_22_153
*613 FILLER_0_22_165
*614 FILLER_0_22_177
*615 FILLER_0_22_189
*616 FILLER_0_22_195
*617 FILLER_0_22_197
*618 FILLER_0_22_209
*619 FILLER_0_22_221
*620 FILLER_0_22_233
*621 FILLER_0_22_245
*622 FILLER_0_22_251
*623 FILLER_0_22_253
*624 FILLER_0_22_265
*625 FILLER_0_22_27
*626 FILLER_0_22_277
*627 FILLER_0_22_289
*628 FILLER_0_22_29
*629 FILLER_0_22_3
*630 FILLER_0_22_301
*631 FILLER_0_22_307
*632 FILLER_0_22_309
*633 FILLER_0_22_321
*634 FILLER_0_22_333
*635 FILLER_0_22_41
*636 FILLER_0_22_53
*637 FILLER_0_22_65
*638 FILLER_0_22_77
*639 FILLER_0_22_83
*640 FILLER_0_22_85
*641 FILLER_0_22_97
*642 FILLER_0_23_105
*643 FILLER_0_23_111
*644 FILLER_0_23_113
*645 FILLER_0_23_125
*646 FILLER_0_23_137
*647 FILLER_0_23_149
*648 FILLER_0_23_15
*649 FILLER_0_23_161
*650 FILLER_0_23_167
*651 FILLER_0_23_169
*652 FILLER_0_23_181
*653 FILLER_0_23_193
*654 FILLER_0_23_205
*655 FILLER_0_23_217
*656 FILLER_0_23_223
*657 FILLER_0_23_225
*658 FILLER_0_23_237
*659 FILLER_0_23_249
*660 FILLER_0_23_261
*661 FILLER_0_23_27
*662 FILLER_0_23_273
*663 FILLER_0_23_279
*664 FILLER_0_23_281
*665 FILLER_0_23_293
*666 FILLER_0_23_3
*667 FILLER_0_23_305
*668 FILLER_0_23_317
*669 FILLER_0_23_329
*670 FILLER_0_23_39
*671 FILLER_0_23_51
*672 FILLER_0_23_55
*673 FILLER_0_23_57
*674 FILLER_0_23_69
*675 FILLER_0_23_81
*676 FILLER_0_23_93
*677 FILLER_0_24_109
*678 FILLER_0_24_121
*679 FILLER_0_24_133
*680 FILLER_0_24_139
*681 FILLER_0_24_141
*682 FILLER_0_24_15
*683 FILLER_0_24_153
*684 FILLER_0_24_165
*685 FILLER_0_24_177
*686 FILLER_0_24_189
*687 FILLER_0_24_195
*688 FILLER_0_24_197
*689 FILLER_0_24_209
*690 FILLER_0_24_221
*691 FILLER_0_24_233
*692 FILLER_0_24_245
*693 FILLER_0_24_251
*694 FILLER_0_24_253
*695 FILLER_0_24_265
*696 FILLER_0_24_27
*697 FILLER_0_24_277
*698 FILLER_0_24_289
*699 FILLER_0_24_29
*700 FILLER_0_24_3
*701 FILLER_0_24_301
*702 FILLER_0_24_307
*703 FILLER_0_24_309
*704 FILLER_0_24_321
*705 FILLER_0_24_333
*706 FILLER_0_24_41
*707 FILLER_0_24_53
*708 FILLER_0_24_65
*709 FILLER_0_24_77
*710 FILLER_0_24_83
*711 FILLER_0_24_85
*712 FILLER_0_24_97
*713 FILLER_0_25_105
*714 FILLER_0_25_111
*715 FILLER_0_25_113
*716 FILLER_0_25_125
*717 FILLER_0_25_137
*718 FILLER_0_25_149
*719 FILLER_0_25_15
*720 FILLER_0_25_161
*721 FILLER_0_25_167
*722 FILLER_0_25_169
*723 FILLER_0_25_181
*724 FILLER_0_25_193
*725 FILLER_0_25_205
*726 FILLER_0_25_217
*727 FILLER_0_25_223
*728 FILLER_0_25_225
*729 FILLER_0_25_237
*730 FILLER_0_25_249
*731 FILLER_0_25_261
*732 FILLER_0_25_27
*733 FILLER_0_25_273
*734 FILLER_0_25_279
*735 FILLER_0_25_281
*736 FILLER_0_25_293
*737 FILLER_0_25_3
*738 FILLER_0_25_305
*739 FILLER_0_25_317
*740 FILLER_0_25_329
*741 FILLER_0_25_39
*742 FILLER_0_25_51
*743 FILLER_0_25_55
*744 FILLER_0_25_57
*745 FILLER_0_25_69
*746 FILLER_0_25_81
*747 FILLER_0_25_93
*748 FILLER_0_26_109
*749 FILLER_0_26_121
*750 FILLER_0_26_133
*751 FILLER_0_26_139
*752 FILLER_0_26_141
*753 FILLER_0_26_15
*754 FILLER_0_26_153
*755 FILLER_0_26_165
*756 FILLER_0_26_177
*757 FILLER_0_26_189
*758 FILLER_0_26_195
*759 FILLER_0_26_197
*760 FILLER_0_26_209
*761 FILLER_0_26_221
*762 FILLER_0_26_233
*763 FILLER_0_26_245
*764 FILLER_0_26_251
*765 FILLER_0_26_253
*766 FILLER_0_26_265
*767 FILLER_0_26_27
*768 FILLER_0_26_277
*769 FILLER_0_26_289
*770 FILLER_0_26_29
*771 FILLER_0_26_3
*772 FILLER_0_26_301
*773 FILLER_0_26_307
*774 FILLER_0_26_309
*775 FILLER_0_26_321
*776 FILLER_0_26_333
*777 FILLER_0_26_41
*778 FILLER_0_26_53
*779 FILLER_0_26_65
*780 FILLER_0_26_77
*781 FILLER_0_26_83
*782 FILLER_0_26_85
*783 FILLER_0_26_97
*784 FILLER_0_27_105
*785 FILLER_0_27_111
*786 FILLER_0_27_113
*787 FILLER_0_27_125
*788 FILLER_0_27_137
*789 FILLER_0_27_149
*790 FILLER_0_27_15
*791 FILLER_0_27_161
*792 FILLER_0_27_167
*793 FILLER_0_27_169
*794 FILLER_0_27_181
*795 FILLER_0_27_193
*796 FILLER_0_27_205
*797 FILLER_0_27_217
*798 FILLER_0_27_223
*799 FILLER_0_27_225
*800 FILLER_0_27_237
*801 FILLER_0_27_249
*802 FILLER_0_27_261
*803 FILLER_0_27_27
*804 FILLER_0_27_273
*805 FILLER_0_27_279
*806 FILLER_0_27_281
*807 FILLER_0_27_293
*808 FILLER_0_27_3
*809 FILLER_0_27_305
*810 FILLER_0_27_317
*811 FILLER_0_27_329
*812 FILLER_0_27_39
*813 FILLER_0_27_51
*814 FILLER_0_27_55
*815 FILLER_0_27_57
*816 FILLER_0_27_69
*817 FILLER_0_27_81
*818 FILLER_0_27_93
*819 FILLER_0_28_109
*820 FILLER_0_28_121
*821 FILLER_0_28_133
*822 FILLER_0_28_139
*823 FILLER_0_28_141
*824 FILLER_0_28_15
*825 FILLER_0_28_153
*826 FILLER_0_28_165
*827 FILLER_0_28_177
*828 FILLER_0_28_189
*829 FILLER_0_28_195
*830 FILLER_0_28_197
*831 FILLER_0_28_209
*832 FILLER_0_28_221
*833 FILLER_0_28_233
*834 FILLER_0_28_245
*835 FILLER_0_28_251
*836 FILLER_0_28_253
*837 FILLER_0_28_265
*838 FILLER_0_28_27
*839 FILLER_0_28_277
*840 FILLER_0_28_289
*841 FILLER_0_28_29
*842 FILLER_0_28_3
*843 FILLER_0_28_301
*844 FILLER_0_28_307
*845 FILLER_0_28_309
*846 FILLER_0_28_321
*847 FILLER_0_28_333
*848 FILLER_0_28_41
*849 FILLER_0_28_53
*850 FILLER_0_28_65
*851 FILLER_0_28_77
*852 FILLER_0_28_83
*853 FILLER_0_28_85
*854 FILLER_0_28_97
*855 FILLER_0_29_105
*856 FILLER_0_29_111
*857 FILLER_0_29_113
*858 FILLER_0_29_125
*859 FILLER_0_29_137
*860 FILLER_0_29_149
*861 FILLER_0_29_15
*862 FILLER_0_29_161
*863 FILLER_0_29_167
*864 FILLER_0_29_169
*865 FILLER_0_29_181
*866 FILLER_0_29_193
*867 FILLER_0_29_205
*868 FILLER_0_29_217
*869 FILLER_0_29_223
*870 FILLER_0_29_225
*871 FILLER_0_29_237
*872 FILLER_0_29_249
*873 FILLER_0_29_261
*874 FILLER_0_29_27
*875 FILLER_0_29_273
*876 FILLER_0_29_279
*877 FILLER_0_29_281
*878 FILLER_0_29_293
*879 FILLER_0_29_3
*880 FILLER_0_29_305
*881 FILLER_0_29_317
*882 FILLER_0_29_329
*883 FILLER_0_29_39
*884 FILLER_0_29_51
*885 FILLER_0_29_55
*886 FILLER_0_29_57
*887 FILLER_0_29_69
*888 FILLER_0_29_81
*889 FILLER_0_29_93
*890 FILLER_0_2_109
*891 FILLER_0_2_121
*892 FILLER_0_2_133
*893 FILLER_0_2_139
*894 FILLER_0_2_141
*895 FILLER_0_2_15
*896 FILLER_0_2_153
*897 FILLER_0_2_165
*898 FILLER_0_2_177
*899 FILLER_0_2_189
*900 FILLER_0_2_195
*901 FILLER_0_2_197
*902 FILLER_0_2_209
*903 FILLER_0_2_221
*904 FILLER_0_2_233
*905 FILLER_0_2_245
*906 FILLER_0_2_251
*907 FILLER_0_2_253
*908 FILLER_0_2_265
*909 FILLER_0_2_27
*910 FILLER_0_2_277
*911 FILLER_0_2_289
*912 FILLER_0_2_29
*913 FILLER_0_2_3
*914 FILLER_0_2_301
*915 FILLER_0_2_307
*916 FILLER_0_2_309
*917 FILLER_0_2_321
*918 FILLER_0_2_333
*919 FILLER_0_2_41
*920 FILLER_0_2_53
*921 FILLER_0_2_65
*922 FILLER_0_2_77
*923 FILLER_0_2_83
*924 FILLER_0_2_85
*925 FILLER_0_2_97
*926 FILLER_0_30_109
*927 FILLER_0_30_121
*928 FILLER_0_30_133
*929 FILLER_0_30_139
*930 FILLER_0_30_141
*931 FILLER_0_30_15
*932 FILLER_0_30_153
*933 FILLER_0_30_165
*934 FILLER_0_30_177
*935 FILLER_0_30_189
*936 FILLER_0_30_195
*937 FILLER_0_30_197
*938 FILLER_0_30_209
*939 FILLER_0_30_221
*940 FILLER_0_30_233
*941 FILLER_0_30_245
*942 FILLER_0_30_251
*943 FILLER_0_30_253
*944 FILLER_0_30_265
*945 FILLER_0_30_27
*946 FILLER_0_30_277
*947 FILLER_0_30_289
*948 FILLER_0_30_29
*949 FILLER_0_30_3
*950 FILLER_0_30_301
*951 FILLER_0_30_307
*952 FILLER_0_30_309
*953 FILLER_0_30_321
*954 FILLER_0_30_333
*955 FILLER_0_30_41
*956 FILLER_0_30_53
*957 FILLER_0_30_65
*958 FILLER_0_30_77
*959 FILLER_0_30_83
*960 FILLER_0_30_85
*961 FILLER_0_30_97
*962 FILLER_0_31_105
*963 FILLER_0_31_111
*964 FILLER_0_31_113
*965 FILLER_0_31_125
*966 FILLER_0_31_137
*967 FILLER_0_31_149
*968 FILLER_0_31_15
*969 FILLER_0_31_161
*970 FILLER_0_31_167
*971 FILLER_0_31_169
*972 FILLER_0_31_181
*973 FILLER_0_31_193
*974 FILLER_0_31_205
*975 FILLER_0_31_217
*976 FILLER_0_31_223
*977 FILLER_0_31_225
*978 FILLER_0_31_237
*979 FILLER_0_31_249
*980 FILLER_0_31_261
*981 FILLER_0_31_27
*982 FILLER_0_31_273
*983 FILLER_0_31_279
*984 FILLER_0_31_281
*985 FILLER_0_31_293
*986 FILLER_0_31_3
*987 FILLER_0_31_305
*988 FILLER_0_31_317
*989 FILLER_0_31_329
*990 FILLER_0_31_39
*991 FILLER_0_31_51
*992 FILLER_0_31_55
*993 FILLER_0_31_57
*994 FILLER_0_31_69
*995 FILLER_0_31_81
*996 FILLER_0_31_93
*997 FILLER_0_32_109
*998 FILLER_0_32_121
*999 FILLER_0_32_133
*1000 FILLER_0_32_139
*1001 FILLER_0_32_141
*1002 FILLER_0_32_15
*1003 FILLER_0_32_153
*1004 FILLER_0_32_165
*1005 FILLER_0_32_177
*1006 FILLER_0_32_189
*1007 FILLER_0_32_195
*1008 FILLER_0_32_197
*1009 FILLER_0_32_209
*1010 FILLER_0_32_221
*1011 FILLER_0_32_233
*1012 FILLER_0_32_245
*1013 FILLER_0_32_251
*1014 FILLER_0_32_253
*1015 FILLER_0_32_265
*1016 FILLER_0_32_27
*1017 FILLER_0_32_277
*1018 FILLER_0_32_289
*1019 FILLER_0_32_29
*1020 FILLER_0_32_3
*1021 FILLER_0_32_301
*1022 FILLER_0_32_307
*1023 FILLER_0_32_309
*1024 FILLER_0_32_321
*1025 FILLER_0_32_333
*1026 FILLER_0_32_41
*1027 FILLER_0_32_53
*1028 FILLER_0_32_65
*1029 FILLER_0_32_77
*1030 FILLER_0_32_83
*1031 FILLER_0_32_85
*1032 FILLER_0_32_97
*1033 FILLER_0_33_105
*1034 FILLER_0_33_111
*1035 FILLER_0_33_113
*1036 FILLER_0_33_125
*1037 FILLER_0_33_137
*1038 FILLER_0_33_149
*1039 FILLER_0_33_15
*1040 FILLER_0_33_161
*1041 FILLER_0_33_167
*1042 FILLER_0_33_169
*1043 FILLER_0_33_181
*1044 FILLER_0_33_193
*1045 FILLER_0_33_205
*1046 FILLER_0_33_217
*1047 FILLER_0_33_223
*1048 FILLER_0_33_225
*1049 FILLER_0_33_237
*1050 FILLER_0_33_249
*1051 FILLER_0_33_261
*1052 FILLER_0_33_27
*1053 FILLER_0_33_273
*1054 FILLER_0_33_279
*1055 FILLER_0_33_281
*1056 FILLER_0_33_293
*1057 FILLER_0_33_3
*1058 FILLER_0_33_305
*1059 FILLER_0_33_317
*1060 FILLER_0_33_329
*1061 FILLER_0_33_39
*1062 FILLER_0_33_51
*1063 FILLER_0_33_55
*1064 FILLER_0_33_57
*1065 FILLER_0_33_69
*1066 FILLER_0_33_81
*1067 FILLER_0_33_93
*1068 FILLER_0_34_109
*1069 FILLER_0_34_121
*1070 FILLER_0_34_133
*1071 FILLER_0_34_139
*1072 FILLER_0_34_141
*1073 FILLER_0_34_15
*1074 FILLER_0_34_153
*1075 FILLER_0_34_165
*1076 FILLER_0_34_177
*1077 FILLER_0_34_189
*1078 FILLER_0_34_195
*1079 FILLER_0_34_197
*1080 FILLER_0_34_209
*1081 FILLER_0_34_221
*1082 FILLER_0_34_227
*1083 FILLER_0_34_239
*1084 FILLER_0_34_251
*1085 FILLER_0_34_261
*1086 FILLER_0_34_269
*1087 FILLER_0_34_27
*1088 FILLER_0_34_280
*1089 FILLER_0_34_288
*1090 FILLER_0_34_29
*1091 FILLER_0_34_3
*1092 FILLER_0_34_307
*1093 FILLER_0_34_309
*1094 FILLER_0_34_321
*1095 FILLER_0_34_332
*1096 FILLER_0_34_41
*1097 FILLER_0_34_53
*1098 FILLER_0_34_65
*1099 FILLER_0_34_77
*1100 FILLER_0_34_83
*1101 FILLER_0_34_85
*1102 FILLER_0_34_97
*1103 FILLER_0_35_105
*1104 FILLER_0_35_111
*1105 FILLER_0_35_113
*1106 FILLER_0_35_125
*1107 FILLER_0_35_137
*1108 FILLER_0_35_149
*1109 FILLER_0_35_15
*1110 FILLER_0_35_161
*1111 FILLER_0_35_167
*1112 FILLER_0_35_169
*1113 FILLER_0_35_181
*1114 FILLER_0_35_193
*1115 FILLER_0_35_205
*1116 FILLER_0_35_217
*1117 FILLER_0_35_27
*1118 FILLER_0_35_270
*1119 FILLER_0_35_279
*1120 FILLER_0_35_3
*1121 FILLER_0_35_313
*1122 FILLER_0_35_39
*1123 FILLER_0_35_51
*1124 FILLER_0_35_55
*1125 FILLER_0_35_57
*1126 FILLER_0_35_69
*1127 FILLER_0_35_81
*1128 FILLER_0_35_93
*1129 FILLER_0_36_109
*1130 FILLER_0_36_121
*1131 FILLER_0_36_133
*1132 FILLER_0_36_139
*1133 FILLER_0_36_141
*1134 FILLER_0_36_15
*1135 FILLER_0_36_153
*1136 FILLER_0_36_165
*1137 FILLER_0_36_177
*1138 FILLER_0_36_189
*1139 FILLER_0_36_195
*1140 FILLER_0_36_197
*1141 FILLER_0_36_205
*1142 FILLER_0_36_222
*1143 FILLER_0_36_226
*1144 FILLER_0_36_243
*1145 FILLER_0_36_269
*1146 FILLER_0_36_27
*1147 FILLER_0_36_29
*1148 FILLER_0_36_293
*1149 FILLER_0_36_3
*1150 FILLER_0_36_307
*1151 FILLER_0_36_334
*1152 FILLER_0_36_41
*1153 FILLER_0_36_53
*1154 FILLER_0_36_65
*1155 FILLER_0_36_77
*1156 FILLER_0_36_83
*1157 FILLER_0_36_85
*1158 FILLER_0_36_97
*1159 FILLER_0_37_105
*1160 FILLER_0_37_111
*1161 FILLER_0_37_113
*1162 FILLER_0_37_125
*1163 FILLER_0_37_137
*1164 FILLER_0_37_149
*1165 FILLER_0_37_15
*1166 FILLER_0_37_157
*1167 FILLER_0_37_165
*1168 FILLER_0_37_169
*1169 FILLER_0_37_177
*1170 FILLER_0_37_211
*1171 FILLER_0_37_215
*1172 FILLER_0_37_225
*1173 FILLER_0_37_251
*1174 FILLER_0_37_27
*1175 FILLER_0_37_3
*1176 FILLER_0_37_334
*1177 FILLER_0_37_39
*1178 FILLER_0_37_51
*1179 FILLER_0_37_55
*1180 FILLER_0_37_57
*1181 FILLER_0_37_69
*1182 FILLER_0_37_81
*1183 FILLER_0_37_93
*1184 FILLER_0_38_10
*1185 FILLER_0_38_102
*1186 FILLER_0_38_106
*1187 FILLER_0_38_110
*1188 FILLER_0_38_113
*1189 FILLER_0_38_118
*1190 FILLER_0_38_122
*1191 FILLER_0_38_126
*1192 FILLER_0_38_130
*1193 FILLER_0_38_134
*1194 FILLER_0_38_14
*1195 FILLER_0_38_145
*1196 FILLER_0_38_149
*1197 FILLER_0_38_154
*1198 FILLER_0_38_161
*1199 FILLER_0_38_167
*1200 FILLER_0_38_169
*1201 FILLER_0_38_18
*1202 FILLER_0_38_188
*1203 FILLER_0_38_197
*1204 FILLER_0_38_201
*1205 FILLER_0_38_210
*1206 FILLER_0_38_22
*1207 FILLER_0_38_225
*1208 FILLER_0_38_233
*1209 FILLER_0_38_241
*1210 FILLER_0_38_253
*1211 FILLER_0_38_260
*1212 FILLER_0_38_306
*1213 FILLER_0_38_32
*1214 FILLER_0_38_334
*1215 FILLER_0_38_38
*1216 FILLER_0_38_42
*1217 FILLER_0_38_46
*1218 FILLER_0_38_50
*1219 FILLER_0_38_54
*1220 FILLER_0_38_57
*1221 FILLER_0_38_6
*1222 FILLER_0_38_62
*1223 FILLER_0_38_66
*1224 FILLER_0_38_70
*1225 FILLER_0_38_74
*1226 FILLER_0_38_78
*1227 FILLER_0_38_88
*1228 FILLER_0_38_94
*1229 FILLER_0_38_98
*1230 FILLER_0_3_105
*1231 FILLER_0_3_111
*1232 FILLER_0_3_113
*1233 FILLER_0_3_125
*1234 FILLER_0_3_137
*1235 FILLER_0_3_149
*1236 FILLER_0_3_15
*1237 FILLER_0_3_161
*1238 FILLER_0_3_167
*1239 FILLER_0_3_169
*1240 FILLER_0_3_181
*1241 FILLER_0_3_193
*1242 FILLER_0_3_205
*1243 FILLER_0_3_217
*1244 FILLER_0_3_223
*1245 FILLER_0_3_225
*1246 FILLER_0_3_237
*1247 FILLER_0_3_249
*1248 FILLER_0_3_261
*1249 FILLER_0_3_27
*1250 FILLER_0_3_273
*1251 FILLER_0_3_279
*1252 FILLER_0_3_281
*1253 FILLER_0_3_293
*1254 FILLER_0_3_3
*1255 FILLER_0_3_305
*1256 FILLER_0_3_317
*1257 FILLER_0_3_329
*1258 FILLER_0_3_39
*1259 FILLER_0_3_51
*1260 FILLER_0_3_55
*1261 FILLER_0_3_57
*1262 FILLER_0_3_69
*1263 FILLER_0_3_81
*1264 FILLER_0_3_93
*1265 FILLER_0_4_109
*1266 FILLER_0_4_121
*1267 FILLER_0_4_133
*1268 FILLER_0_4_139
*1269 FILLER_0_4_141
*1270 FILLER_0_4_15
*1271 FILLER_0_4_153
*1272 FILLER_0_4_165
*1273 FILLER_0_4_177
*1274 FILLER_0_4_189
*1275 FILLER_0_4_195
*1276 FILLER_0_4_197
*1277 FILLER_0_4_209
*1278 FILLER_0_4_221
*1279 FILLER_0_4_233
*1280 FILLER_0_4_245
*1281 FILLER_0_4_251
*1282 FILLER_0_4_253
*1283 FILLER_0_4_265
*1284 FILLER_0_4_27
*1285 FILLER_0_4_277
*1286 FILLER_0_4_289
*1287 FILLER_0_4_29
*1288 FILLER_0_4_3
*1289 FILLER_0_4_301
*1290 FILLER_0_4_307
*1291 FILLER_0_4_309
*1292 FILLER_0_4_321
*1293 FILLER_0_4_333
*1294 FILLER_0_4_41
*1295 FILLER_0_4_53
*1296 FILLER_0_4_65
*1297 FILLER_0_4_77
*1298 FILLER_0_4_83
*1299 FILLER_0_4_85
*1300 FILLER_0_4_97
*1301 FILLER_0_5_105
*1302 FILLER_0_5_111
*1303 FILLER_0_5_113
*1304 FILLER_0_5_125
*1305 FILLER_0_5_137
*1306 FILLER_0_5_149
*1307 FILLER_0_5_15
*1308 FILLER_0_5_161
*1309 FILLER_0_5_167
*1310 FILLER_0_5_169
*1311 FILLER_0_5_181
*1312 FILLER_0_5_193
*1313 FILLER_0_5_205
*1314 FILLER_0_5_217
*1315 FILLER_0_5_223
*1316 FILLER_0_5_225
*1317 FILLER_0_5_237
*1318 FILLER_0_5_249
*1319 FILLER_0_5_261
*1320 FILLER_0_5_27
*1321 FILLER_0_5_273
*1322 FILLER_0_5_279
*1323 FILLER_0_5_281
*1324 FILLER_0_5_293
*1325 FILLER_0_5_3
*1326 FILLER_0_5_305
*1327 FILLER_0_5_317
*1328 FILLER_0_5_329
*1329 FILLER_0_5_39
*1330 FILLER_0_5_51
*1331 FILLER_0_5_55
*1332 FILLER_0_5_57
*1333 FILLER_0_5_69
*1334 FILLER_0_5_81
*1335 FILLER_0_5_93
*1336 FILLER_0_6_109
*1337 FILLER_0_6_121
*1338 FILLER_0_6_133
*1339 FILLER_0_6_139
*1340 FILLER_0_6_141
*1341 FILLER_0_6_15
*1342 FILLER_0_6_153
*1343 FILLER_0_6_165
*1344 FILLER_0_6_177
*1345 FILLER_0_6_189
*1346 FILLER_0_6_195
*1347 FILLER_0_6_197
*1348 FILLER_0_6_209
*1349 FILLER_0_6_221
*1350 FILLER_0_6_233
*1351 FILLER_0_6_245
*1352 FILLER_0_6_251
*1353 FILLER_0_6_253
*1354 FILLER_0_6_265
*1355 FILLER_0_6_27
*1356 FILLER_0_6_277
*1357 FILLER_0_6_289
*1358 FILLER_0_6_29
*1359 FILLER_0_6_3
*1360 FILLER_0_6_301
*1361 FILLER_0_6_307
*1362 FILLER_0_6_309
*1363 FILLER_0_6_321
*1364 FILLER_0_6_333
*1365 FILLER_0_6_41
*1366 FILLER_0_6_53
*1367 FILLER_0_6_65
*1368 FILLER_0_6_77
*1369 FILLER_0_6_83
*1370 FILLER_0_6_85
*1371 FILLER_0_6_97
*1372 FILLER_0_7_105
*1373 FILLER_0_7_111
*1374 FILLER_0_7_113
*1375 FILLER_0_7_125
*1376 FILLER_0_7_137
*1377 FILLER_0_7_149
*1378 FILLER_0_7_15
*1379 FILLER_0_7_161
*1380 FILLER_0_7_167
*1381 FILLER_0_7_169
*1382 FILLER_0_7_181
*1383 FILLER_0_7_193
*1384 FILLER_0_7_205
*1385 FILLER_0_7_217
*1386 FILLER_0_7_223
*1387 FILLER_0_7_225
*1388 FILLER_0_7_237
*1389 FILLER_0_7_249
*1390 FILLER_0_7_261
*1391 FILLER_0_7_27
*1392 FILLER_0_7_273
*1393 FILLER_0_7_279
*1394 FILLER_0_7_281
*1395 FILLER_0_7_293
*1396 FILLER_0_7_3
*1397 FILLER_0_7_305
*1398 FILLER_0_7_317
*1399 FILLER_0_7_329
*1400 FILLER_0_7_39
*1401 FILLER_0_7_51
*1402 FILLER_0_7_55
*1403 FILLER_0_7_57
*1404 FILLER_0_7_69
*1405 FILLER_0_7_81
*1406 FILLER_0_7_93
*1407 FILLER_0_8_109
*1408 FILLER_0_8_121
*1409 FILLER_0_8_133
*1410 FILLER_0_8_139
*1411 FILLER_0_8_141
*1412 FILLER_0_8_15
*1413 FILLER_0_8_153
*1414 FILLER_0_8_165
*1415 FILLER_0_8_177
*1416 FILLER_0_8_189
*1417 FILLER_0_8_195
*1418 FILLER_0_8_197
*1419 FILLER_0_8_209
*1420 FILLER_0_8_221
*1421 FILLER_0_8_233
*1422 FILLER_0_8_245
*1423 FILLER_0_8_251
*1424 FILLER_0_8_253
*1425 FILLER_0_8_265
*1426 FILLER_0_8_27
*1427 FILLER_0_8_277
*1428 FILLER_0_8_289
*1429 FILLER_0_8_29
*1430 FILLER_0_8_3
*1431 FILLER_0_8_301
*1432 FILLER_0_8_307
*1433 FILLER_0_8_309
*1434 FILLER_0_8_321
*1435 FILLER_0_8_333
*1436 FILLER_0_8_41
*1437 FILLER_0_8_53
*1438 FILLER_0_8_65
*1439 FILLER_0_8_77
*1440 FILLER_0_8_83
*1441 FILLER_0_8_85
*1442 FILLER_0_8_97
*1443 FILLER_0_9_105
*1444 FILLER_0_9_111
*1445 FILLER_0_9_113
*1446 FILLER_0_9_125
*1447 FILLER_0_9_137
*1448 FILLER_0_9_149
*1449 FILLER_0_9_15
*1450 FILLER_0_9_161
*1451 FILLER_0_9_167
*1452 FILLER_0_9_169
*1453 FILLER_0_9_181
*1454 FILLER_0_9_193
*1455 FILLER_0_9_205
*1456 FILLER_0_9_217
*1457 FILLER_0_9_223
*1458 FILLER_0_9_225
*1459 FILLER_0_9_237
*1460 FILLER_0_9_249
*1461 FILLER_0_9_261
*1462 FILLER_0_9_27
*1463 FILLER_0_9_273
*1464 FILLER_0_9_279
*1465 FILLER_0_9_281
*1466 FILLER_0_9_293
*1467 FILLER_0_9_3
*1468 FILLER_0_9_305
*1469 FILLER_0_9_317
*1470 FILLER_0_9_329
*1471 FILLER_0_9_39
*1472 FILLER_0_9_51
*1473 FILLER_0_9_55
*1474 FILLER_0_9_57
*1475 FILLER_0_9_69
*1476 FILLER_0_9_81