*SPEF "ieee 1481-1999"
*DESIGN "tt_um_wokwi_395179352683141121"
*DATE "01:08:21 Monday April 15, 2024"
*VENDOR "The OpenROAD Project"
*PROGRAM "OpenROAD"
*VERSION "0889970d1790a2617e69f253221b8bd7626e51dc"
*DESIGN_FLOW "NAME_SCOPE LOCAL" "PIN_CAP NONE"
*DIVIDER /
*DELIMITER :
*BUS_DELIMITER []
*T_UNIT 1 NS
*C_UNIT 1 PF
*R_UNIT 1 OHM
*L_UNIT 1 HENRY

*NAME_MAP
*3 clk
*4 ena
*5 rst_n
*6 ui_in[0]
*7 ui_in[1]
*8 ui_in[2]
*9 ui_in[3]
*10 ui_in[4]
*11 ui_in[5]
*12 ui_in[6]
*13 ui_in[7]
*14 uio_in[0]
*15 uio_in[1]
*16 uio_in[2]
*17 uio_in[3]
*18 uio_in[4]
*19 uio_in[5]
*20 uio_in[6]
*21 uio_in[7]
*22 net8
*23 net9
*24 net10
*25 net11
*26 net12
*27 net13
*28 net14
*29 net15
*30 net16
*31 net17
*32 net18
*33 net19
*34 net20
*35 net21
*36 net22
*37 net23
*38 uo_out[0]
*39 uo_out[1]
*40 uo_out[2]
*41 uo_out[3]
*42 uo_out[4]
*43 uo_out[5]
*44 net24
*45 net25
*46 _00_
*47 _01_
*48 _02_
*49 _03_
*50 _04_
*51 _05_
*52 _06_
*53 _07_
*54 _08_
*55 _09_
*56 _10_
*57 _11_
*58 _12_
*59 _13_
*60 _14_
*61 _15_
*62 _16_
*63 _17_
*64 and3\.out
*65 and6\.out
*66 and7\.b
*67 and8\.b
*68 clknet_0_clk
*69 clknet_1_0__leaf_clk
*70 clknet_1_1__leaf_clk
*71 flop1\.q
*72 flop2\.q
*73 flop3\.q
*74 flop4\.q
*75 flop5\.d
*76 flop6\.q
*77 flop7\.d
*78 flop7\.q
*79 net1
*80 net2
*81 net3
*82 net4
*83 net5
*84 net6
*85 net7
*86 FILLER_0_0_109
*87 FILLER_0_0_113
*88 FILLER_0_0_125
*89 FILLER_0_0_137
*90 FILLER_0_0_141
*91 FILLER_0_0_15
*92 FILLER_0_0_153
*93 FILLER_0_0_165
*94 FILLER_0_0_169
*95 FILLER_0_0_181
*96 FILLER_0_0_193
*97 FILLER_0_0_197
*98 FILLER_0_0_209
*99 FILLER_0_0_221
*100 FILLER_0_0_225
*101 FILLER_0_0_237
*102 FILLER_0_0_249
*103 FILLER_0_0_253
*104 FILLER_0_0_265
*105 FILLER_0_0_27
*106 FILLER_0_0_277
*107 FILLER_0_0_281
*108 FILLER_0_0_29
*109 FILLER_0_0_293
*110 FILLER_0_0_3
*111 FILLER_0_0_305
*112 FILLER_0_0_309
*113 FILLER_0_0_321
*114 FILLER_0_0_333
*115 FILLER_0_0_41
*116 FILLER_0_0_53
*117 FILLER_0_0_57
*118 FILLER_0_0_69
*119 FILLER_0_0_81
*120 FILLER_0_0_85
*121 FILLER_0_0_97
*122 FILLER_0_10_109
*123 FILLER_0_10_121
*124 FILLER_0_10_133
*125 FILLER_0_10_139
*126 FILLER_0_10_141
*127 FILLER_0_10_15
*128 FILLER_0_10_153
*129 FILLER_0_10_165
*130 FILLER_0_10_177
*131 FILLER_0_10_189
*132 FILLER_0_10_195
*133 FILLER_0_10_197
*134 FILLER_0_10_209
*135 FILLER_0_10_221
*136 FILLER_0_10_233
*137 FILLER_0_10_245
*138 FILLER_0_10_251
*139 FILLER_0_10_253
*140 FILLER_0_10_265
*141 FILLER_0_10_27
*142 FILLER_0_10_277
*143 FILLER_0_10_289
*144 FILLER_0_10_29
*145 FILLER_0_10_3
*146 FILLER_0_10_301
*147 FILLER_0_10_307
*148 FILLER_0_10_309
*149 FILLER_0_10_321
*150 FILLER_0_10_333
*151 FILLER_0_10_41
*152 FILLER_0_10_53
*153 FILLER_0_10_65
*154 FILLER_0_10_77
*155 FILLER_0_10_83
*156 FILLER_0_10_85
*157 FILLER_0_10_97
*158 FILLER_0_11_105
*159 FILLER_0_11_111
*160 FILLER_0_11_113
*161 FILLER_0_11_125
*162 FILLER_0_11_137
*163 FILLER_0_11_149
*164 FILLER_0_11_15
*165 FILLER_0_11_161
*166 FILLER_0_11_167
*167 FILLER_0_11_169
*168 FILLER_0_11_181
*169 FILLER_0_11_193
*170 FILLER_0_11_205
*171 FILLER_0_11_217
*172 FILLER_0_11_223
*173 FILLER_0_11_225
*174 FILLER_0_11_237
*175 FILLER_0_11_249
*176 FILLER_0_11_261
*177 FILLER_0_11_27
*178 FILLER_0_11_273
*179 FILLER_0_11_279
*180 FILLER_0_11_281
*181 FILLER_0_11_293
*182 FILLER_0_11_3
*183 FILLER_0_11_305
*184 FILLER_0_11_317
*185 FILLER_0_11_329
*186 FILLER_0_11_39
*187 FILLER_0_11_51
*188 FILLER_0_11_55
*189 FILLER_0_11_57
*190 FILLER_0_11_69
*191 FILLER_0_11_81
*192 FILLER_0_11_93
*193 FILLER_0_12_109
*194 FILLER_0_12_121
*195 FILLER_0_12_133
*196 FILLER_0_12_139
*197 FILLER_0_12_141
*198 FILLER_0_12_15
*199 FILLER_0_12_153
*200 FILLER_0_12_165
*201 FILLER_0_12_177
*202 FILLER_0_12_189
*203 FILLER_0_12_195
*204 FILLER_0_12_197
*205 FILLER_0_12_209
*206 FILLER_0_12_221
*207 FILLER_0_12_233
*208 FILLER_0_12_245
*209 FILLER_0_12_251
*210 FILLER_0_12_253
*211 FILLER_0_12_265
*212 FILLER_0_12_27
*213 FILLER_0_12_277
*214 FILLER_0_12_289
*215 FILLER_0_12_29
*216 FILLER_0_12_3
*217 FILLER_0_12_301
*218 FILLER_0_12_307
*219 FILLER_0_12_309
*220 FILLER_0_12_321
*221 FILLER_0_12_333
*222 FILLER_0_12_41
*223 FILLER_0_12_53
*224 FILLER_0_12_65
*225 FILLER_0_12_77
*226 FILLER_0_12_83
*227 FILLER_0_12_85
*228 FILLER_0_12_97
*229 FILLER_0_13_105
*230 FILLER_0_13_111
*231 FILLER_0_13_113
*232 FILLER_0_13_125
*233 FILLER_0_13_137
*234 FILLER_0_13_149
*235 FILLER_0_13_15
*236 FILLER_0_13_161
*237 FILLER_0_13_167
*238 FILLER_0_13_169
*239 FILLER_0_13_181
*240 FILLER_0_13_193
*241 FILLER_0_13_205
*242 FILLER_0_13_217
*243 FILLER_0_13_223
*244 FILLER_0_13_225
*245 FILLER_0_13_237
*246 FILLER_0_13_249
*247 FILLER_0_13_261
*248 FILLER_0_13_27
*249 FILLER_0_13_273
*250 FILLER_0_13_279
*251 FILLER_0_13_281
*252 FILLER_0_13_293
*253 FILLER_0_13_3
*254 FILLER_0_13_305
*255 FILLER_0_13_317
*256 FILLER_0_13_329
*257 FILLER_0_13_39
*258 FILLER_0_13_51
*259 FILLER_0_13_55
*260 FILLER_0_13_57
*261 FILLER_0_13_69
*262 FILLER_0_13_81
*263 FILLER_0_13_93
*264 FILLER_0_14_109
*265 FILLER_0_14_121
*266 FILLER_0_14_133
*267 FILLER_0_14_139
*268 FILLER_0_14_141
*269 FILLER_0_14_15
*270 FILLER_0_14_153
*271 FILLER_0_14_165
*272 FILLER_0_14_177
*273 FILLER_0_14_189
*274 FILLER_0_14_195
*275 FILLER_0_14_197
*276 FILLER_0_14_209
*277 FILLER_0_14_221
*278 FILLER_0_14_233
*279 FILLER_0_14_245
*280 FILLER_0_14_251
*281 FILLER_0_14_253
*282 FILLER_0_14_265
*283 FILLER_0_14_27
*284 FILLER_0_14_277
*285 FILLER_0_14_289
*286 FILLER_0_14_29
*287 FILLER_0_14_3
*288 FILLER_0_14_301
*289 FILLER_0_14_307
*290 FILLER_0_14_309
*291 FILLER_0_14_321
*292 FILLER_0_14_333
*293 FILLER_0_14_41
*294 FILLER_0_14_53
*295 FILLER_0_14_65
*296 FILLER_0_14_77
*297 FILLER_0_14_83
*298 FILLER_0_14_85
*299 FILLER_0_14_97
*300 FILLER_0_15_105
*301 FILLER_0_15_111
*302 FILLER_0_15_113
*303 FILLER_0_15_125
*304 FILLER_0_15_137
*305 FILLER_0_15_149
*306 FILLER_0_15_15
*307 FILLER_0_15_161
*308 FILLER_0_15_167
*309 FILLER_0_15_169
*310 FILLER_0_15_181
*311 FILLER_0_15_193
*312 FILLER_0_15_205
*313 FILLER_0_15_217
*314 FILLER_0_15_223
*315 FILLER_0_15_225
*316 FILLER_0_15_237
*317 FILLER_0_15_249
*318 FILLER_0_15_261
*319 FILLER_0_15_27
*320 FILLER_0_15_273
*321 FILLER_0_15_279
*322 FILLER_0_15_281
*323 FILLER_0_15_293
*324 FILLER_0_15_3
*325 FILLER_0_15_305
*326 FILLER_0_15_317
*327 FILLER_0_15_329
*328 FILLER_0_15_39
*329 FILLER_0_15_51
*330 FILLER_0_15_55
*331 FILLER_0_15_57
*332 FILLER_0_15_69
*333 FILLER_0_15_81
*334 FILLER_0_15_93
*335 FILLER_0_16_109
*336 FILLER_0_16_121
*337 FILLER_0_16_133
*338 FILLER_0_16_139
*339 FILLER_0_16_141
*340 FILLER_0_16_15
*341 FILLER_0_16_153
*342 FILLER_0_16_165
*343 FILLER_0_16_177
*344 FILLER_0_16_189
*345 FILLER_0_16_195
*346 FILLER_0_16_197
*347 FILLER_0_16_209
*348 FILLER_0_16_221
*349 FILLER_0_16_233
*350 FILLER_0_16_245
*351 FILLER_0_16_251
*352 FILLER_0_16_253
*353 FILLER_0_16_265
*354 FILLER_0_16_27
*355 FILLER_0_16_277
*356 FILLER_0_16_289
*357 FILLER_0_16_29
*358 FILLER_0_16_3
*359 FILLER_0_16_301
*360 FILLER_0_16_307
*361 FILLER_0_16_309
*362 FILLER_0_16_321
*363 FILLER_0_16_333
*364 FILLER_0_16_41
*365 FILLER_0_16_53
*366 FILLER_0_16_65
*367 FILLER_0_16_77
*368 FILLER_0_16_83
*369 FILLER_0_16_85
*370 FILLER_0_16_97
*371 FILLER_0_17_105
*372 FILLER_0_17_111
*373 FILLER_0_17_113
*374 FILLER_0_17_125
*375 FILLER_0_17_137
*376 FILLER_0_17_149
*377 FILLER_0_17_15
*378 FILLER_0_17_161
*379 FILLER_0_17_167
*380 FILLER_0_17_169
*381 FILLER_0_17_181
*382 FILLER_0_17_193
*383 FILLER_0_17_205
*384 FILLER_0_17_217
*385 FILLER_0_17_223
*386 FILLER_0_17_225
*387 FILLER_0_17_237
*388 FILLER_0_17_249
*389 FILLER_0_17_261
*390 FILLER_0_17_27
*391 FILLER_0_17_273
*392 FILLER_0_17_279
*393 FILLER_0_17_281
*394 FILLER_0_17_293
*395 FILLER_0_17_3
*396 FILLER_0_17_305
*397 FILLER_0_17_317
*398 FILLER_0_17_329
*399 FILLER_0_17_39
*400 FILLER_0_17_51
*401 FILLER_0_17_55
*402 FILLER_0_17_57
*403 FILLER_0_17_69
*404 FILLER_0_17_81
*405 FILLER_0_17_93
*406 FILLER_0_18_109
*407 FILLER_0_18_121
*408 FILLER_0_18_133
*409 FILLER_0_18_139
*410 FILLER_0_18_141
*411 FILLER_0_18_15
*412 FILLER_0_18_153
*413 FILLER_0_18_165
*414 FILLER_0_18_177
*415 FILLER_0_18_189
*416 FILLER_0_18_195
*417 FILLER_0_18_197
*418 FILLER_0_18_209
*419 FILLER_0_18_221
*420 FILLER_0_18_233
*421 FILLER_0_18_245
*422 FILLER_0_18_251
*423 FILLER_0_18_253
*424 FILLER_0_18_265
*425 FILLER_0_18_27
*426 FILLER_0_18_277
*427 FILLER_0_18_289
*428 FILLER_0_18_29
*429 FILLER_0_18_3
*430 FILLER_0_18_301
*431 FILLER_0_18_307
*432 FILLER_0_18_309
*433 FILLER_0_18_321
*434 FILLER_0_18_333
*435 FILLER_0_18_41
*436 FILLER_0_18_53
*437 FILLER_0_18_65
*438 FILLER_0_18_77
*439 FILLER_0_18_83
*440 FILLER_0_18_85
*441 FILLER_0_18_97
*442 FILLER_0_19_105
*443 FILLER_0_19_111
*444 FILLER_0_19_113
*445 FILLER_0_19_125
*446 FILLER_0_19_137
*447 FILLER_0_19_149
*448 FILLER_0_19_15
*449 FILLER_0_19_161
*450 FILLER_0_19_167
*451 FILLER_0_19_169
*452 FILLER_0_19_181
*453 FILLER_0_19_193
*454 FILLER_0_19_205
*455 FILLER_0_19_217
*456 FILLER_0_19_223
*457 FILLER_0_19_225
*458 FILLER_0_19_237
*459 FILLER_0_19_249
*460 FILLER_0_19_261
*461 FILLER_0_19_27
*462 FILLER_0_19_273
*463 FILLER_0_19_279
*464 FILLER_0_19_281
*465 FILLER_0_19_293
*466 FILLER_0_19_3
*467 FILLER_0_19_305
*468 FILLER_0_19_317
*469 FILLER_0_19_329
*470 FILLER_0_19_39
*471 FILLER_0_19_51
*472 FILLER_0_19_55
*473 FILLER_0_19_57
*474 FILLER_0_19_69
*475 FILLER_0_19_81
*476 FILLER_0_19_93
*477 FILLER_0_1_105
*478 FILLER_0_1_111
*479 FILLER_0_1_113
*480 FILLER_0_1_125
*481 FILLER_0_1_137
*482 FILLER_0_1_149
*483 FILLER_0_1_15
*484 FILLER_0_1_161
*485 FILLER_0_1_167
*486 FILLER_0_1_169
*487 FILLER_0_1_181
*488 FILLER_0_1_193
*489 FILLER_0_1_205
*490 FILLER_0_1_217
*491 FILLER_0_1_223
*492 FILLER_0_1_225
*493 FILLER_0_1_237
*494 FILLER_0_1_249
*495 FILLER_0_1_261
*496 FILLER_0_1_27
*497 FILLER_0_1_273
*498 FILLER_0_1_279
*499 FILLER_0_1_281
*500 FILLER_0_1_293
*501 FILLER_0_1_3
*502 FILLER_0_1_305
*503 FILLER_0_1_317
*504 FILLER_0_1_329
*505 FILLER_0_1_39
*506 FILLER_0_1_51
*507 FILLER_0_1_55
*508 FILLER_0_1_57
*509 FILLER_0_1_69
*510 FILLER_0_1_81
*511 FILLER_0_1_93
*512 FILLER_0_20_109
*513 FILLER_0_20_121
*514 FILLER_0_20_133
*515 FILLER_0_20_139
*516 FILLER_0_20_141
*517 FILLER_0_20_15
*518 FILLER_0_20_153
*519 FILLER_0_20_165
*520 FILLER_0_20_177
*521 FILLER_0_20_189
*522 FILLER_0_20_195
*523 FILLER_0_20_197
*524 FILLER_0_20_209
*525 FILLER_0_20_221
*526 FILLER_0_20_233
*527 FILLER_0_20_245
*528 FILLER_0_20_251
*529 FILLER_0_20_253
*530 FILLER_0_20_265
*531 FILLER_0_20_27
*532 FILLER_0_20_277
*533 FILLER_0_20_289
*534 FILLER_0_20_29
*535 FILLER_0_20_3
*536 FILLER_0_20_301
*537 FILLER_0_20_307
*538 FILLER_0_20_309
*539 FILLER_0_20_321
*540 FILLER_0_20_333
*541 FILLER_0_20_41
*542 FILLER_0_20_53
*543 FILLER_0_20_65
*544 FILLER_0_20_77
*545 FILLER_0_20_83
*546 FILLER_0_20_85
*547 FILLER_0_20_97
*548 FILLER_0_21_105
*549 FILLER_0_21_111
*550 FILLER_0_21_113
*551 FILLER_0_21_125
*552 FILLER_0_21_137
*553 FILLER_0_21_149
*554 FILLER_0_21_15
*555 FILLER_0_21_161
*556 FILLER_0_21_167
*557 FILLER_0_21_169
*558 FILLER_0_21_181
*559 FILLER_0_21_193
*560 FILLER_0_21_205
*561 FILLER_0_21_217
*562 FILLER_0_21_223
*563 FILLER_0_21_225
*564 FILLER_0_21_237
*565 FILLER_0_21_249
*566 FILLER_0_21_261
*567 FILLER_0_21_27
*568 FILLER_0_21_273
*569 FILLER_0_21_279
*570 FILLER_0_21_281
*571 FILLER_0_21_293
*572 FILLER_0_21_3
*573 FILLER_0_21_305
*574 FILLER_0_21_317
*575 FILLER_0_21_329
*576 FILLER_0_21_39
*577 FILLER_0_21_51
*578 FILLER_0_21_55
*579 FILLER_0_21_57
*580 FILLER_0_21_69
*581 FILLER_0_21_81
*582 FILLER_0_21_93
*583 FILLER_0_22_109
*584 FILLER_0_22_121
*585 FILLER_0_22_133
*586 FILLER_0_22_139
*587 FILLER_0_22_141
*588 FILLER_0_22_15
*589 FILLER_0_22_153
*590 FILLER_0_22_165
*591 FILLER_0_22_177
*592 FILLER_0_22_189
*593 FILLER_0_22_195
*594 FILLER_0_22_197
*595 FILLER_0_22_209
*596 FILLER_0_22_221
*597 FILLER_0_22_233
*598 FILLER_0_22_245
*599 FILLER_0_22_251
*600 FILLER_0_22_253
*601 FILLER_0_22_265
*602 FILLER_0_22_27
*603 FILLER_0_22_277
*604 FILLER_0_22_289
*605 FILLER_0_22_29
*606 FILLER_0_22_3
*607 FILLER_0_22_301
*608 FILLER_0_22_307
*609 FILLER_0_22_309
*610 FILLER_0_22_321
*611 FILLER_0_22_333
*612 FILLER_0_22_41
*613 FILLER_0_22_53
*614 FILLER_0_22_65
*615 FILLER_0_22_77
*616 FILLER_0_22_83
*617 FILLER_0_22_85
*618 FILLER_0_22_97
*619 FILLER_0_23_105
*620 FILLER_0_23_111
*621 FILLER_0_23_113
*622 FILLER_0_23_125
*623 FILLER_0_23_137
*624 FILLER_0_23_149
*625 FILLER_0_23_15
*626 FILLER_0_23_161
*627 FILLER_0_23_167
*628 FILLER_0_23_169
*629 FILLER_0_23_181
*630 FILLER_0_23_193
*631 FILLER_0_23_205
*632 FILLER_0_23_217
*633 FILLER_0_23_223
*634 FILLER_0_23_225
*635 FILLER_0_23_237
*636 FILLER_0_23_249
*637 FILLER_0_23_261
*638 FILLER_0_23_27
*639 FILLER_0_23_273
*640 FILLER_0_23_279
*641 FILLER_0_23_281
*642 FILLER_0_23_293
*643 FILLER_0_23_3
*644 FILLER_0_23_305
*645 FILLER_0_23_317
*646 FILLER_0_23_329
*647 FILLER_0_23_39
*648 FILLER_0_23_51
*649 FILLER_0_23_55
*650 FILLER_0_23_57
*651 FILLER_0_23_69
*652 FILLER_0_23_81
*653 FILLER_0_23_93
*654 FILLER_0_24_109
*655 FILLER_0_24_121
*656 FILLER_0_24_133
*657 FILLER_0_24_139
*658 FILLER_0_24_141
*659 FILLER_0_24_15
*660 FILLER_0_24_153
*661 FILLER_0_24_165
*662 FILLER_0_24_177
*663 FILLER_0_24_189
*664 FILLER_0_24_195
*665 FILLER_0_24_197
*666 FILLER_0_24_209
*667 FILLER_0_24_221
*668 FILLER_0_24_233
*669 FILLER_0_24_245
*670 FILLER_0_24_251
*671 FILLER_0_24_253
*672 FILLER_0_24_265
*673 FILLER_0_24_27
*674 FILLER_0_24_277
*675 FILLER_0_24_289
*676 FILLER_0_24_29
*677 FILLER_0_24_3
*678 FILLER_0_24_301
*679 FILLER_0_24_307
*680 FILLER_0_24_309
*681 FILLER_0_24_321
*682 FILLER_0_24_333
*683 FILLER_0_24_41
*684 FILLER_0_24_53
*685 FILLER_0_24_65
*686 FILLER_0_24_77
*687 FILLER_0_24_83
*688 FILLER_0_24_85
*689 FILLER_0_24_97
*690 FILLER_0_25_105
*691 FILLER_0_25_111
*692 FILLER_0_25_113
*693 FILLER_0_25_125
*694 FILLER_0_25_137
*695 FILLER_0_25_149
*696 FILLER_0_25_15
*697 FILLER_0_25_161
*698 FILLER_0_25_167
*699 FILLER_0_25_169
*700 FILLER_0_25_181
*701 FILLER_0_25_193
*702 FILLER_0_25_205
*703 FILLER_0_25_217
*704 FILLER_0_25_223
*705 FILLER_0_25_225
*706 FILLER_0_25_237
*707 FILLER_0_25_249
*708 FILLER_0_25_261
*709 FILLER_0_25_27
*710 FILLER_0_25_273
*711 FILLER_0_25_279
*712 FILLER_0_25_281
*713 FILLER_0_25_293
*714 FILLER_0_25_3
*715 FILLER_0_25_305
*716 FILLER_0_25_317
*717 FILLER_0_25_329
*718 FILLER_0_25_39
*719 FILLER_0_25_51
*720 FILLER_0_25_55
*721 FILLER_0_25_57
*722 FILLER_0_25_69
*723 FILLER_0_25_81
*724 FILLER_0_25_93
*725 FILLER_0_26_109
*726 FILLER_0_26_121
*727 FILLER_0_26_133
*728 FILLER_0_26_139
*729 FILLER_0_26_141
*730 FILLER_0_26_15
*731 FILLER_0_26_153
*732 FILLER_0_26_165
*733 FILLER_0_26_177
*734 FILLER_0_26_189
*735 FILLER_0_26_195
*736 FILLER_0_26_197
*737 FILLER_0_26_209
*738 FILLER_0_26_221
*739 FILLER_0_26_233
*740 FILLER_0_26_245
*741 FILLER_0_26_251
*742 FILLER_0_26_253
*743 FILLER_0_26_265
*744 FILLER_0_26_27
*745 FILLER_0_26_277
*746 FILLER_0_26_289
*747 FILLER_0_26_29
*748 FILLER_0_26_3
*749 FILLER_0_26_301
*750 FILLER_0_26_307
*751 FILLER_0_26_309
*752 FILLER_0_26_321
*753 FILLER_0_26_333
*754 FILLER_0_26_41
*755 FILLER_0_26_53
*756 FILLER_0_26_65
*757 FILLER_0_26_77
*758 FILLER_0_26_83
*759 FILLER_0_26_85
*760 FILLER_0_26_97
*761 FILLER_0_27_105
*762 FILLER_0_27_111
*763 FILLER_0_27_113
*764 FILLER_0_27_125
*765 FILLER_0_27_137
*766 FILLER_0_27_149
*767 FILLER_0_27_15
*768 FILLER_0_27_161
*769 FILLER_0_27_167
*770 FILLER_0_27_169
*771 FILLER_0_27_181
*772 FILLER_0_27_193
*773 FILLER_0_27_205
*774 FILLER_0_27_217
*775 FILLER_0_27_223
*776 FILLER_0_27_225
*777 FILLER_0_27_237
*778 FILLER_0_27_249
*779 FILLER_0_27_261
*780 FILLER_0_27_27
*781 FILLER_0_27_273
*782 FILLER_0_27_279
*783 FILLER_0_27_281
*784 FILLER_0_27_293
*785 FILLER_0_27_3
*786 FILLER_0_27_305
*787 FILLER_0_27_317
*788 FILLER_0_27_329
*789 FILLER_0_27_39
*790 FILLER_0_27_51
*791 FILLER_0_27_55
*792 FILLER_0_27_57
*793 FILLER_0_27_69
*794 FILLER_0_27_81
*795 FILLER_0_27_93
*796 FILLER_0_28_109
*797 FILLER_0_28_121
*798 FILLER_0_28_133
*799 FILLER_0_28_139
*800 FILLER_0_28_141
*801 FILLER_0_28_15
*802 FILLER_0_28_153
*803 FILLER_0_28_165
*804 FILLER_0_28_177
*805 FILLER_0_28_189
*806 FILLER_0_28_195
*807 FILLER_0_28_197
*808 FILLER_0_28_209
*809 FILLER_0_28_221
*810 FILLER_0_28_233
*811 FILLER_0_28_245
*812 FILLER_0_28_251
*813 FILLER_0_28_253
*814 FILLER_0_28_265
*815 FILLER_0_28_27
*816 FILLER_0_28_277
*817 FILLER_0_28_289
*818 FILLER_0_28_29
*819 FILLER_0_28_3
*820 FILLER_0_28_301
*821 FILLER_0_28_307
*822 FILLER_0_28_309
*823 FILLER_0_28_321
*824 FILLER_0_28_333
*825 FILLER_0_28_41
*826 FILLER_0_28_53
*827 FILLER_0_28_65
*828 FILLER_0_28_77
*829 FILLER_0_28_83
*830 FILLER_0_28_85
*831 FILLER_0_28_97
*832 FILLER_0_29_105
*833 FILLER_0_29_111
*834 FILLER_0_29_113
*835 FILLER_0_29_125
*836 FILLER_0_29_137
*837 FILLER_0_29_149
*838 FILLER_0_29_15
*839 FILLER_0_29_161
*840 FILLER_0_29_167
*841 FILLER_0_29_169
*842 FILLER_0_29_181
*843 FILLER_0_29_193
*844 FILLER_0_29_205
*845 FILLER_0_29_217
*846 FILLER_0_29_223
*847 FILLER_0_29_225
*848 FILLER_0_29_237
*849 FILLER_0_29_249
*850 FILLER_0_29_261
*851 FILLER_0_29_27
*852 FILLER_0_29_273
*853 FILLER_0_29_279
*854 FILLER_0_29_281
*855 FILLER_0_29_293
*856 FILLER_0_29_3
*857 FILLER_0_29_305
*858 FILLER_0_29_317
*859 FILLER_0_29_329
*860 FILLER_0_29_39
*861 FILLER_0_29_51
*862 FILLER_0_29_55
*863 FILLER_0_29_57
*864 FILLER_0_29_69
*865 FILLER_0_29_81
*866 FILLER_0_29_93
*867 FILLER_0_2_109
*868 FILLER_0_2_121
*869 FILLER_0_2_133
*870 FILLER_0_2_139
*871 FILLER_0_2_141
*872 FILLER_0_2_15
*873 FILLER_0_2_153
*874 FILLER_0_2_165
*875 FILLER_0_2_177
*876 FILLER_0_2_189
*877 FILLER_0_2_195
*878 FILLER_0_2_197
*879 FILLER_0_2_209
*880 FILLER_0_2_221
*881 FILLER_0_2_233
*882 FILLER_0_2_245
*883 FILLER_0_2_251
*884 FILLER_0_2_253
*885 FILLER_0_2_265
*886 FILLER_0_2_27
*887 FILLER_0_2_277
*888 FILLER_0_2_289
*889 FILLER_0_2_29
*890 FILLER_0_2_3
*891 FILLER_0_2_301
*892 FILLER_0_2_307
*893 FILLER_0_2_309
*894 FILLER_0_2_321
*895 FILLER_0_2_333
*896 FILLER_0_2_41
*897 FILLER_0_2_53
*898 FILLER_0_2_65
*899 FILLER_0_2_77
*900 FILLER_0_2_83
*901 FILLER_0_2_85
*902 FILLER_0_2_97
*903 FILLER_0_30_109
*904 FILLER_0_30_121
*905 FILLER_0_30_133
*906 FILLER_0_30_139
*907 FILLER_0_30_141
*908 FILLER_0_30_15
*909 FILLER_0_30_153
*910 FILLER_0_30_165
*911 FILLER_0_30_177
*912 FILLER_0_30_189
*913 FILLER_0_30_195
*914 FILLER_0_30_197
*915 FILLER_0_30_209
*916 FILLER_0_30_221
*917 FILLER_0_30_233
*918 FILLER_0_30_245
*919 FILLER_0_30_251
*920 FILLER_0_30_253
*921 FILLER_0_30_265
*922 FILLER_0_30_27
*923 FILLER_0_30_277
*924 FILLER_0_30_289
*925 FILLER_0_30_29
*926 FILLER_0_30_3
*927 FILLER_0_30_301
*928 FILLER_0_30_307
*929 FILLER_0_30_309
*930 FILLER_0_30_321
*931 FILLER_0_30_333
*932 FILLER_0_30_41
*933 FILLER_0_30_53
*934 FILLER_0_30_65
*935 FILLER_0_30_77
*936 FILLER_0_30_83
*937 FILLER_0_30_85
*938 FILLER_0_30_97
*939 FILLER_0_31_105
*940 FILLER_0_31_111
*941 FILLER_0_31_113
*942 FILLER_0_31_125
*943 FILLER_0_31_137
*944 FILLER_0_31_149
*945 FILLER_0_31_15
*946 FILLER_0_31_161
*947 FILLER_0_31_167
*948 FILLER_0_31_169
*949 FILLER_0_31_181
*950 FILLER_0_31_193
*951 FILLER_0_31_205
*952 FILLER_0_31_217
*953 FILLER_0_31_223
*954 FILLER_0_31_225
*955 FILLER_0_31_237
*956 FILLER_0_31_249
*957 FILLER_0_31_261
*958 FILLER_0_31_27
*959 FILLER_0_31_273
*960 FILLER_0_31_279
*961 FILLER_0_31_281
*962 FILLER_0_31_293
*963 FILLER_0_31_3
*964 FILLER_0_31_305
*965 FILLER_0_31_317
*966 FILLER_0_31_329
*967 FILLER_0_31_39
*968 FILLER_0_31_51
*969 FILLER_0_31_55
*970 FILLER_0_31_57
*971 FILLER_0_31_69
*972 FILLER_0_31_81
*973 FILLER_0_31_93
*974 FILLER_0_32_109
*975 FILLER_0_32_121
*976 FILLER_0_32_133
*977 FILLER_0_32_139
*978 FILLER_0_32_141
*979 FILLER_0_32_15
*980 FILLER_0_32_153
*981 FILLER_0_32_165
*982 FILLER_0_32_177
*983 FILLER_0_32_189
*984 FILLER_0_32_195
*985 FILLER_0_32_197
*986 FILLER_0_32_209
*987 FILLER_0_32_221
*988 FILLER_0_32_233
*989 FILLER_0_32_245
*990 FILLER_0_32_251
*991 FILLER_0_32_253
*992 FILLER_0_32_265
*993 FILLER_0_32_27
*994 FILLER_0_32_277
*995 FILLER_0_32_289
*996 FILLER_0_32_29
*997 FILLER_0_32_3
*998 FILLER_0_32_301
*999 FILLER_0_32_307
*1000 FILLER_0_32_309
*1001 FILLER_0_32_321
*1002 FILLER_0_32_333
*1003 FILLER_0_32_41
*1004 FILLER_0_32_53
*1005 FILLER_0_32_65
*1006 FILLER_0_32_77
*1007 FILLER_0_32_83
*1008 FILLER_0_32_85
*1009 FILLER_0_32_97
*1010 FILLER_0_33_105
*1011 FILLER_0_33_111
*1012 FILLER_0_33_113
*1013 FILLER_0_33_125
*1014 FILLER_0_33_137
*1015 FILLER_0_33_149
*1016 FILLER_0_33_15
*1017 FILLER_0_33_161
*1018 FILLER_0_33_167
*1019 FILLER_0_33_169
*1020 FILLER_0_33_181
*1021 FILLER_0_33_193
*1022 FILLER_0_33_205
*1023 FILLER_0_33_217
*1024 FILLER_0_33_223
*1025 FILLER_0_33_225
*1026 FILLER_0_33_237
*1027 FILLER_0_33_249
*1028 FILLER_0_33_261
*1029 FILLER_0_33_27
*1030 FILLER_0_33_273
*1031 FILLER_0_33_279
*1032 FILLER_0_33_281
*1033 FILLER_0_33_293
*1034 FILLER_0_33_3
*1035 FILLER_0_33_305
*1036 FILLER_0_33_317
*1037 FILLER_0_33_329
*1038 FILLER_0_33_39
*1039 FILLER_0_33_51
*1040 FILLER_0_33_55
*1041 FILLER_0_33_57
*1042 FILLER_0_33_69
*1043 FILLER_0_33_81
*1044 FILLER_0_33_93
*1045 FILLER_0_34_109
*1046 FILLER_0_34_121
*1047 FILLER_0_34_133
*1048 FILLER_0_34_139
*1049 FILLER_0_34_141
*1050 FILLER_0_34_15
*1051 FILLER_0_34_153
*1052 FILLER_0_34_165
*1053 FILLER_0_34_177
*1054 FILLER_0_34_189
*1055 FILLER_0_34_195
*1056 FILLER_0_34_197
*1057 FILLER_0_34_209
*1058 FILLER_0_34_217
*1059 FILLER_0_34_229
*1060 FILLER_0_34_241
*1061 FILLER_0_34_249
*1062 FILLER_0_34_253
*1063 FILLER_0_34_265
*1064 FILLER_0_34_27
*1065 FILLER_0_34_277
*1066 FILLER_0_34_289
*1067 FILLER_0_34_29
*1068 FILLER_0_34_3
*1069 FILLER_0_34_301
*1070 FILLER_0_34_307
*1071 FILLER_0_34_309
*1072 FILLER_0_34_321
*1073 FILLER_0_34_333
*1074 FILLER_0_34_41
*1075 FILLER_0_34_53
*1076 FILLER_0_34_65
*1077 FILLER_0_34_77
*1078 FILLER_0_34_83
*1079 FILLER_0_34_85
*1080 FILLER_0_34_97
*1081 FILLER_0_35_105
*1082 FILLER_0_35_111
*1083 FILLER_0_35_113
*1084 FILLER_0_35_125
*1085 FILLER_0_35_137
*1086 FILLER_0_35_149
*1087 FILLER_0_35_15
*1088 FILLER_0_35_161
*1089 FILLER_0_35_167
*1090 FILLER_0_35_169
*1091 FILLER_0_35_181
*1092 FILLER_0_35_193
*1093 FILLER_0_35_222
*1094 FILLER_0_35_225
*1095 FILLER_0_35_243
*1096 FILLER_0_35_255
*1097 FILLER_0_35_262
*1098 FILLER_0_35_27
*1099 FILLER_0_35_274
*1100 FILLER_0_35_284
*1101 FILLER_0_35_296
*1102 FILLER_0_35_3
*1103 FILLER_0_35_308
*1104 FILLER_0_35_320
*1105 FILLER_0_35_332
*1106 FILLER_0_35_39
*1107 FILLER_0_35_51
*1108 FILLER_0_35_55
*1109 FILLER_0_35_57
*1110 FILLER_0_35_69
*1111 FILLER_0_35_81
*1112 FILLER_0_35_93
*1113 FILLER_0_36_109
*1114 FILLER_0_36_121
*1115 FILLER_0_36_133
*1116 FILLER_0_36_139
*1117 FILLER_0_36_141
*1118 FILLER_0_36_15
*1119 FILLER_0_36_153
*1120 FILLER_0_36_165
*1121 FILLER_0_36_177
*1122 FILLER_0_36_189
*1123 FILLER_0_36_197
*1124 FILLER_0_36_209
*1125 FILLER_0_36_240
*1126 FILLER_0_36_244
*1127 FILLER_0_36_251
*1128 FILLER_0_36_253
*1129 FILLER_0_36_27
*1130 FILLER_0_36_29
*1131 FILLER_0_36_290
*1132 FILLER_0_36_298
*1133 FILLER_0_36_3
*1134 FILLER_0_36_303
*1135 FILLER_0_36_307
*1136 FILLER_0_36_330
*1137 FILLER_0_36_334
*1138 FILLER_0_36_41
*1139 FILLER_0_36_53
*1140 FILLER_0_36_65
*1141 FILLER_0_36_77
*1142 FILLER_0_36_83
*1143 FILLER_0_36_85
*1144 FILLER_0_36_97
*1145 FILLER_0_37_105
*1146 FILLER_0_37_111
*1147 FILLER_0_37_113
*1148 FILLER_0_37_125
*1149 FILLER_0_37_137
*1150 FILLER_0_37_149
*1151 FILLER_0_37_15
*1152 FILLER_0_37_161
*1153 FILLER_0_37_167
*1154 FILLER_0_37_169
*1155 FILLER_0_37_181
*1156 FILLER_0_37_193
*1157 FILLER_0_37_205
*1158 FILLER_0_37_217
*1159 FILLER_0_37_225
*1160 FILLER_0_37_231
*1161 FILLER_0_37_260
*1162 FILLER_0_37_27
*1163 FILLER_0_37_279
*1164 FILLER_0_37_281
*1165 FILLER_0_37_3
*1166 FILLER_0_37_314
*1167 FILLER_0_37_39
*1168 FILLER_0_37_51
*1169 FILLER_0_37_55
*1170 FILLER_0_37_57
*1171 FILLER_0_37_69
*1172 FILLER_0_37_81
*1173 FILLER_0_37_93
*1174 FILLER_0_38_10
*1175 FILLER_0_38_102
*1176 FILLER_0_38_106
*1177 FILLER_0_38_110
*1178 FILLER_0_38_113
*1179 FILLER_0_38_118
*1180 FILLER_0_38_122
*1181 FILLER_0_38_126
*1182 FILLER_0_38_130
*1183 FILLER_0_38_134
*1184 FILLER_0_38_14
*1185 FILLER_0_38_144
*1186 FILLER_0_38_156
*1187 FILLER_0_38_161
*1188 FILLER_0_38_169
*1189 FILLER_0_38_177
*1190 FILLER_0_38_18
*1191 FILLER_0_38_184
*1192 FILLER_0_38_191
*1193 FILLER_0_38_195
*1194 FILLER_0_38_22
*1195 FILLER_0_38_222
*1196 FILLER_0_38_232
*1197 FILLER_0_38_250
*1198 FILLER_0_38_258
*1199 FILLER_0_38_270
*1200 FILLER_0_38_274
*1201 FILLER_0_38_278
*1202 FILLER_0_38_295
*1203 FILLER_0_38_302
*1204 FILLER_0_38_312
*1205 FILLER_0_38_32
*1206 FILLER_0_38_327
*1207 FILLER_0_38_38
*1208 FILLER_0_38_42
*1209 FILLER_0_38_46
*1210 FILLER_0_38_50
*1211 FILLER_0_38_54
*1212 FILLER_0_38_57
*1213 FILLER_0_38_6
*1214 FILLER_0_38_62
*1215 FILLER_0_38_66
*1216 FILLER_0_38_70
*1217 FILLER_0_38_74
*1218 FILLER_0_38_78
*1219 FILLER_0_38_88
*1220 FILLER_0_38_94
*1221 FILLER_0_38_98
*1222 FILLER_0_3_105
*1223 FILLER_0_3_111
*1224 FILLER_0_3_113
*1225 FILLER_0_3_125
*1226 FILLER_0_3_137
*1227 FILLER_0_3_149
*1228 FILLER_0_3_15
*1229 FILLER_0_3_161
*1230 FILLER_0_3_167
*1231 FILLER_0_3_169
*1232 FILLER_0_3_181
*1233 FILLER_0_3_193
*1234 FILLER_0_3_205
*1235 FILLER_0_3_217
*1236 FILLER_0_3_223
*1237 FILLER_0_3_225
*1238 FILLER_0_3_237
*1239 FILLER_0_3_249
*1240 FILLER_0_3_261
*1241 FILLER_0_3_27
*1242 FILLER_0_3_273
*1243 FILLER_0_3_279
*1244 FILLER_0_3_281
*1245 FILLER_0_3_293
*1246 FILLER_0_3_3
*1247 FILLER_0_3_305
*1248 FILLER_0_3_317
*1249 FILLER_0_3_329
*1250 FILLER_0_3_39
*1251 FILLER_0_3_51
*1252 FILLER_0_3_55
*1253 FILLER_0_3_57
*1254 FILLER_0_3_69
*1255 FILLER_0_3_81
*1256 FILLER_0_3_93
*1257 FILLER_0_4_109
*1258 FILLER_0_4_121
*1259 FILLER_0_4_133
*1260 FILLER_0_4_139
*1261 FILLER_0_4_141
*1262 FILLER_0_4_15
*1263 FILLER_0_4_153
*1264 FILLER_0_4_165
*1265 FILLER_0_4_177
*1266 FILLER_0_4_189
*1267 FILLER_0_4_195
*1268 FILLER_0_4_197
*1269 FILLER_0_4_209
*1270 FILLER_0_4_221
*1271 FILLER_0_4_233
*1272 FILLER_0_4_245
*1273 FILLER_0_4_251
*1274 FILLER_0_4_253
*1275 FILLER_0_4_265
*1276 FILLER_0_4_27
*1277 FILLER_0_4_277
*1278 FILLER_0_4_289
*1279 FILLER_0_4_29
*1280 FILLER_0_4_3
*1281 FILLER_0_4_301
*1282 FILLER_0_4_307
*1283 FILLER_0_4_309
*1284 FILLER_0_4_321
*1285 FILLER_0_4_333
*1286 FILLER_0_4_41
*1287 FILLER_0_4_53
*1288 FILLER_0_4_65
*1289 FILLER_0_4_77
*1290 FILLER_0_4_83
*1291 FILLER_0_4_85
*1292 FILLER_0_4_97
*1293 FILLER_0_5_105
*1294 FILLER_0_5_111
*1295 FILLER_0_5_113
*1296 FILLER_0_5_125
*1297 FILLER_0_5_137
*1298 FILLER_0_5_149
*1299 FILLER_0_5_15
*1300 FILLER_0_5_161
*1301 FILLER_0_5_167
*1302 FILLER_0_5_169
*1303 FILLER_0_5_181
*1304 FILLER_0_5_193
*1305 FILLER_0_5_205
*1306 FILLER_0_5_217
*1307 FILLER_0_5_223
*1308 FILLER_0_5_225
*1309 FILLER_0_5_237
*1310 FILLER_0_5_249
*1311 FILLER_0_5_261
*1312 FILLER_0_5_27
*1313 FILLER_0_5_273
*1314 FILLER_0_5_279
*1315 FILLER_0_5_281
*1316 FILLER_0_5_293
*1317 FILLER_0_5_3
*1318 FILLER_0_5_305
*1319 FILLER_0_5_317
*1320 FILLER_0_5_329
*1321 FILLER_0_5_39
*1322 FILLER_0_5_51
*1323 FILLER_0_5_55
*1324 FILLER_0_5_57
*1325 FILLER_0_5_69
*1326 FILLER_0_5_81
*1327 FILLER_0_5_93
*1328 FILLER_0_6_109
*1329 FILLER_0_6_121
*1330 FILLER_0_6_133
*1331 FILLER_0_6_139
*1332 FILLER_0_6_141
*1333 FILLER_0_6_15
*1334 FILLER_0_6_153
*1335 FILLER_0_6_165
*1336 FILLER_0_6_177
*1337 FILLER_0_6_189
*1338 FILLER_0_6_195
*1339 FILLER_0_6_197
*1340 FILLER_0_6_209
*1341 FILLER_0_6_221
*1342 FILLER_0_6_233
*1343 FILLER_0_6_245
*1344 FILLER_0_6_251
*1345 FILLER_0_6_253
*1346 FILLER_0_6_265
*1347 FILLER_0_6_27
*1348 FILLER_0_6_277
*1349 FILLER_0_6_289
*1350 FILLER_0_6_29
*1351 FILLER_0_6_3
*1352 FILLER_0_6_301
*1353 FILLER_0_6_307
*1354 FILLER_0_6_309
*1355 FILLER_0_6_321
*1356 FILLER_0_6_333
*1357 FILLER_0_6_41
*1358 FILLER_0_6_53
*1359 FILLER_0_6_65
*1360 FILLER_0_6_77
*1361 FILLER_0_6_83
*1362 FILLER_0_6_85
*1363 FILLER_0_6_97
*1364 FILLER_0_7_105
*1365 FILLER_0_7_111
*1366 FILLER_0_7_113
*1367 FILLER_0_7_125
*1368 FILLER_0_7_137
*1369 FILLER_0_7_149
*1370 FILLER_0_7_15
*1371 FILLER_0_7_161
*1372 FILLER_0_7_167
*1373 FILLER_0_7_169
*1374 FILLER_0_7_181
*1375 FILLER_0_7_193
*1376 FILLER_0_7_205
*1377 FILLER_0_7_217
*1378 FILLER_0_7_223
*1379 FILLER_0_7_225
*1380 FILLER_0_7_237
*1381 FILLER_0_7_249
*1382 FILLER_0_7_261
*1383 FILLER_0_7_27
*1384 FILLER_0_7_273
*1385 FILLER_0_7_279
*1386 FILLER_0_7_281
*1387 FILLER_0_7_293
*1388 FILLER_0_7_3
*1389 FILLER_0_7_305
*1390 FILLER_0_7_317
*1391 FILLER_0_7_329
*1392 FILLER_0_7_39
*1393 FILLER_0_7_51
*1394 FILLER_0_7_55
*1395 FILLER_0_7_57
*1396 FILLER_0_7_69
*1397 FILLER_0_7_81
*1398 FILLER_0_7_93
*1399 FILLER_0_8_109
*1400 FILLER_0_8_121
*1401 FILLER_0_8_133
*1402 FILLER_0_8_139
*1403 FILLER_0_8_141
*1404 FILLER_0_8_15
*1405 FILLER_0_8_153
*1406 FILLER_0_8_165
*1407 FILLER_0_8_177
*1408 FILLER_0_8_189
*1409 FILLER_0_8_195
*1410 FILLER_0_8_197
*1411 FILLER_0_8_209
*1412 FILLER_0_8_221
*1413 FILLER_0_8_233
*1414 FILLER_0_8_245
*1415 FILLER_0_8_251
*1416 FILLER_0_8_253
*1417 FILLER_0_8_265
*1418 FILLER_0_8_27
*1419 FILLER_0_8_277
*1420 FILLER_0_8_289
*1421 FILLER_0_8_29
*1422 FILLER_0_8_3
*1423 FILLER_0_8_301
*1424 FILLER_0_8_307
*1425 FILLER_0_8_309
*1426 FILLER_0_8_321
*1427 FILLER_0_8_333
*1428 FILLER_0_8_41
*1429 FILLER_0_8_53
*1430 FILLER_0_8_65
*1431 FILLER_0_8_77
*1432 FILLER_0_8_83
*1433 FILLER_0_8_85
*1434 FILLER_0_8_97
*1435 FILLER_0_9_105
*1436 FILLER_0_9_111
*1437 FILLER_0_9_113
*1438 FILLER_0_9_125
*1439 FILLER_0_9_137
*1440 FILLER_0_9_149
*1441 FILLER_0_9_15
*1442 FILLER_0_9_161
*1443 FILLER_0_9_167
*1444 FILLER_0_9_169
*1445 FILLER_0_9_181
*1446 FILLER_0_9_193
*1447 FILLER_0_9_205
*1448 FILLER_0_9_217
*1449 FILLER_0_9_223
*1450 FILLER_0_9_225
*1451 FILLER_0_9_237
*1452 FILLER_0_9_249
*1453 FILLER_0_9_261
*1454 FILLER_0_9_27
*1455 FILLER_0_9_273
*1456 FILLER_0_9_279
*1457 FILLER_0_9_281
*1458 FILLER_0_9_293
*1459 FILLER_0_9_3
*1460 FILLER_0_9_305
*1461 FILLER_0_9_317
*1462 FILLER_0_9_329
*1463 FILLER_0_9_39
*1464 FILLER_0_9_51
*1465 FILLER_0_9_55
*1466 FILLER_0_9_57
*1467 FILLER_0_9_69
*1468 FILLER_0_9_81