*SPEF "ieee 1481-1999"
*DESIGN "tt_um_hpretl_tt06_tdc_v2"
*DATE "11:11:11 Fri 11 11, 1111"
*VENDOR "OpenRCX"
*PROGRAM "Parallel Extraction"
*VERSION "1.0"
*DESIGN_FLOW "NAME_SCOPE LOCAL" "PIN_CAP NONE"
*DIVIDER /
*DELIMITER :
*BUS_DELIMITER []
*T_UNIT 1 NS
*C_UNIT 1 PF
*R_UNIT 1 OHM
*L_UNIT 1 HENRY

*NAME_MAP
*3 clk
*4 ena
*5 rst_n
*6 ui_in[0]
*7 ui_in[1]
*8 ui_in[2]
*9 ui_in[3]
*10 ui_in[4]
*11 ui_in[5]
*12 ui_in[6]
*13 ui_in[7]
*14 uio_in[0]
*15 uio_in[1]
*16 uio_in[2]
*17 uio_in[3]
*18 uio_in[4]
*19 uio_in[5]
*20 uio_in[6]
*21 uio_in[7]
*22 net80
*23 net81
*24 net82
*25 net83
*26 net84
*27 net85
*28 net86
*29 net87
*30 net88
*31 net89
*32 net90
*33 net91
*34 net92
*35 net93
*36 net94
*37 net95
*38 uo_out[0]
*39 uo_out[1]
*40 uo_out[2]
*41 uo_out[3]
*42 uo_out[4]
*43 uo_out[5]
*44 uo_out[6]
*45 uo_out[7]
*46 _000_
*47 _001_
*48 _002_
*49 _003_
*50 _004_
*51 _005_
*52 _006_
*53 _007_
*54 _008_
*55 _009_
*56 _010_
*57 _011_
*58 _012_
*59 _013_
*60 _014_
*61 _015_
*62 _016_
*63 _017_
*64 _018_
*65 _019_
*66 _020_
*67 _021_
*68 _022_
*69 _023_
*70 _024_
*71 _025_
*72 _026_
*73 _027_
*74 _028_
*75 _029_
*76 _030_
*77 _031_
*78 _032_
*79 _033_
*80 _034_
*81 _035_
*82 _036_
*83 _037_
*84 _038_
*85 _039_
*86 _040_
*87 _041_
*88 _042_
*89 _043_
*90 _044_
*91 _045_
*92 _046_
*93 _047_
*94 _048_
*95 _049_
*96 _050_
*97 _051_
*98 _052_
*99 _053_
*100 _054_
*101 _055_
*102 _056_
*103 _057_
*104 _058_
*105 _059_
*106 _060_
*107 _061_
*108 _062_
*109 _063_
*110 _064_
*111 _065_
*112 _066_
*113 _067_
*114 _068_
*115 _069_
*116 _070_
*117 _071_
*118 _072_
*119 _073_
*120 _074_
*121 _075_
*122 _076_
*123 _077_
*124 _078_
*125 _079_
*126 _080_
*127 _081_
*128 _082_
*129 _083_
*130 _084_
*131 _085_
*132 _086_
*133 _087_
*134 _088_
*135 _089_
*136 _090_
*137 _091_
*138 _092_
*139 _093_
*140 _094_
*141 _095_
*142 _096_
*143 _097_
*144 _098_
*145 _099_
*146 _100_
*147 _101_
*148 _102_
*149 _103_
*150 _104_
*151 _105_
*152 _106_
*153 _107_
*154 _108_
*155 _109_
*156 _110_
*157 _111_
*158 _112_
*159 _113_
*160 _114_
*161 _115_
*162 _116_
*163 _117_
*164 _118_
*165 _119_
*166 _120_
*167 _121_
*168 _122_
*169 _123_
*170 _124_
*171 _125_
*172 _126_
*173 _127_
*174 _128_
*175 _129_
*176 _130_
*177 _131_
*178 _132_
*179 _133_
*180 _134_
*181 _135_
*182 _136_
*183 _137_
*184 _138_
*185 _139_
*186 _140_
*187 _141_
*188 _142_
*189 _143_
*190 _144_
*191 _145_
*192 _146_
*193 _147_
*194 _148_
*195 _149_
*196 _150_
*197 _151_
*198 _152_
*199 _153_
*200 _154_
*201 _155_
*202 _156_
*203 _157_
*204 _158_
*205 _159_
*206 _160_
*207 _161_
*208 _162_
*209 _163_
*210 _164_
*211 _165_
*212 _166_
*213 _167_
*214 _168_
*215 _169_
*216 _170_
*217 _171_
*218 _172_
*219 _173_
*220 _174_
*221 _175_
*222 _176_
*223 _177_
*224 _178_
*225 _179_
*226 _180_
*227 _181_
*228 _182_
*229 _183_
*230 _184_
*231 _185_
*232 _186_
*233 _187_
*234 _188_
*235 _189_
*236 _190_
*237 _191_
*238 _192_
*239 _193_
*240 _194_
*241 _195_
*242 _196_
*243 _197_
*244 _198_
*245 net1
*246 net10
*247 net11
*248 net12
*249 net13
*250 net14
*251 net15
*252 net16
*253 net17
*254 net18
*255 net19
*256 net2
*257 net20
*258 net21
*259 net22
*260 net23
*261 net24
*262 net25
*263 net26
*264 net27
*265 net28
*266 net29
*267 net3
*268 net30
*269 net31
*270 net32
*271 net33
*272 net34
*273 net35
*274 net36
*275 net37
*276 net38
*277 net39
*278 net4
*279 net40
*280 net41
*281 net42
*282 net43
*283 net44
*284 net45
*285 net46
*286 net47
*287 net48
*288 net49
*289 net5
*290 net50
*291 net51
*292 net52
*293 net53
*294 net54
*295 net55
*296 net56
*297 net57
*298 net58
*299 net59
*300 net6
*301 net60
*302 net61
*303 net62
*304 net63
*305 net64
*306 net65
*307 net66
*308 net67
*309 net68
*310 net69
*311 net7
*312 net70
*313 net71
*314 net72
*315 net73
*316 net74
*317 net75
*318 net76
*319 net77
*320 net78
*321 net79
*322 net8
*323 net9
*324 tdc0\.r_dly_store_ctr\[0\]
*325 tdc0\.r_dly_store_ctr\[10\]
*326 tdc0\.r_dly_store_ctr\[11\]
*327 tdc0\.r_dly_store_ctr\[12\]
*328 tdc0\.r_dly_store_ctr\[13\]
*329 tdc0\.r_dly_store_ctr\[14\]
*330 tdc0\.r_dly_store_ctr\[15\]
*331 tdc0\.r_dly_store_ctr\[1\]
*332 tdc0\.r_dly_store_ctr\[2\]
*333 tdc0\.r_dly_store_ctr\[3\]
*334 tdc0\.r_dly_store_ctr\[4\]
*335 tdc0\.r_dly_store_ctr\[5\]
*336 tdc0\.r_dly_store_ctr\[6\]
*337 tdc0\.r_dly_store_ctr\[7\]
*338 tdc0\.r_dly_store_ctr\[8\]
*339 tdc0\.r_dly_store_ctr\[9\]
*340 tdc0\.r_dly_store_ring\[0\]
*341 tdc0\.r_dly_store_ring\[10\]
*342 tdc0\.r_dly_store_ring\[11\]
*343 tdc0\.r_dly_store_ring\[12\]
*344 tdc0\.r_dly_store_ring\[13\]
*345 tdc0\.r_dly_store_ring\[14\]
*346 tdc0\.r_dly_store_ring\[15\]
*347 tdc0\.r_dly_store_ring\[16\]
*348 tdc0\.r_dly_store_ring\[17\]
*349 tdc0\.r_dly_store_ring\[18\]
*350 tdc0\.r_dly_store_ring\[19\]
*351 tdc0\.r_dly_store_ring\[1\]
*352 tdc0\.r_dly_store_ring\[20\]
*353 tdc0\.r_dly_store_ring\[21\]
*354 tdc0\.r_dly_store_ring\[22\]
*355 tdc0\.r_dly_store_ring\[23\]
*356 tdc0\.r_dly_store_ring\[24\]
*357 tdc0\.r_dly_store_ring\[25\]
*358 tdc0\.r_dly_store_ring\[26\]
*359 tdc0\.r_dly_store_ring\[27\]
*360 tdc0\.r_dly_store_ring\[28\]
*361 tdc0\.r_dly_store_ring\[29\]
*362 tdc0\.r_dly_store_ring\[2\]
*363 tdc0\.r_dly_store_ring\[30\]
*364 tdc0\.r_dly_store_ring\[31\]
*365 tdc0\.r_dly_store_ring\[3\]
*366 tdc0\.r_dly_store_ring\[4\]
*367 tdc0\.r_dly_store_ring\[5\]
*368 tdc0\.r_dly_store_ring\[6\]
*369 tdc0\.r_dly_store_ring\[7\]
*370 tdc0\.r_dly_store_ring\[8\]
*371 tdc0\.r_dly_store_ring\[9\]
*372 tdc0\.r_ring_ctr\[0\]
*373 tdc0\.r_ring_ctr\[10\]
*374 tdc0\.r_ring_ctr\[11\]
*375 tdc0\.r_ring_ctr\[12\]
*376 tdc0\.r_ring_ctr\[13\]
*377 tdc0\.r_ring_ctr\[14\]
*378 tdc0\.r_ring_ctr\[15\]
*379 tdc0\.r_ring_ctr\[1\]
*380 tdc0\.r_ring_ctr\[2\]
*381 tdc0\.r_ring_ctr\[3\]
*382 tdc0\.r_ring_ctr\[4\]
*383 tdc0\.r_ring_ctr\[5\]
*384 tdc0\.r_ring_ctr\[6\]
*385 tdc0\.r_ring_ctr\[7\]
*386 tdc0\.r_ring_ctr\[8\]
*387 tdc0\.r_ring_ctr\[9\]
*388 tdc0\.w_dly_stop\[0\]
*389 tdc0\.w_dly_stop\[1\]
*390 tdc0\.w_dly_stop\[2\]
*391 tdc0\.w_dly_stop\[3\]
*392 tdc0\.w_dly_stop\[4\]
*393 tdc0\.w_dly_stop\[5\]
*394 tdc0\.w_reset
*395 tdc0\.w_ring_buf\[0\]
*396 tdc0\.w_ring_buf\[10\]
*397 tdc0\.w_ring_buf\[11\]
*398 tdc0\.w_ring_buf\[12\]
*399 tdc0\.w_ring_buf\[13\]
*400 tdc0\.w_ring_buf\[14\]
*401 tdc0\.w_ring_buf\[15\]
*402 tdc0\.w_ring_buf\[16\]
*403 tdc0\.w_ring_buf\[17\]
*404 tdc0\.w_ring_buf\[18\]
*405 tdc0\.w_ring_buf\[19\]
*406 tdc0\.w_ring_buf\[1\]
*407 tdc0\.w_ring_buf\[20\]
*408 tdc0\.w_ring_buf\[21\]
*409 tdc0\.w_ring_buf\[22\]
*410 tdc0\.w_ring_buf\[23\]
*411 tdc0\.w_ring_buf\[24\]
*412 tdc0\.w_ring_buf\[25\]
*413 tdc0\.w_ring_buf\[26\]
*414 tdc0\.w_ring_buf\[27\]
*415 tdc0\.w_ring_buf\[28\]
*416 tdc0\.w_ring_buf\[29\]
*417 tdc0\.w_ring_buf\[2\]
*418 tdc0\.w_ring_buf\[30\]
*419 tdc0\.w_ring_buf\[31\]
*420 tdc0\.w_ring_buf\[3\]
*421 tdc0\.w_ring_buf\[4\]
*422 tdc0\.w_ring_buf\[5\]
*423 tdc0\.w_ring_buf\[6\]
*424 tdc0\.w_ring_buf\[7\]
*425 tdc0\.w_ring_buf\[8\]
*426 tdc0\.w_ring_buf\[9\]
*427 tdc0\.w_ring_int_norsz\[0\]
*428 tdc0\.w_ring_int_norsz\[10\]
*429 tdc0\.w_ring_int_norsz\[11\]
*430 tdc0\.w_ring_int_norsz\[12\]
*431 tdc0\.w_ring_int_norsz\[13\]
*432 tdc0\.w_ring_int_norsz\[14\]
*433 tdc0\.w_ring_int_norsz\[15\]
*434 tdc0\.w_ring_int_norsz\[16\]
*435 tdc0\.w_ring_int_norsz\[17\]
*436 tdc0\.w_ring_int_norsz\[18\]
*437 tdc0\.w_ring_int_norsz\[19\]
*438 tdc0\.w_ring_int_norsz\[1\]
*439 tdc0\.w_ring_int_norsz\[20\]
*440 tdc0\.w_ring_int_norsz\[21\]
*441 tdc0\.w_ring_int_norsz\[22\]
*442 tdc0\.w_ring_int_norsz\[23\]
*443 tdc0\.w_ring_int_norsz\[24\]
*444 tdc0\.w_ring_int_norsz\[25\]
*445 tdc0\.w_ring_int_norsz\[26\]
*446 tdc0\.w_ring_int_norsz\[27\]
*447 tdc0\.w_ring_int_norsz\[28\]
*448 tdc0\.w_ring_int_norsz\[29\]
*449 tdc0\.w_ring_int_norsz\[2\]
*450 tdc0\.w_ring_int_norsz\[30\]
*451 tdc0\.w_ring_int_norsz\[31\]
*452 tdc0\.w_ring_int_norsz\[3\]
*453 tdc0\.w_ring_int_norsz\[4\]
*454 tdc0\.w_ring_int_norsz\[5\]
*455 tdc0\.w_ring_int_norsz\[6\]
*456 tdc0\.w_ring_int_norsz\[7\]
*457 tdc0\.w_ring_int_norsz\[8\]
*458 tdc0\.w_ring_int_norsz\[9\]
*459 tdc0\.w_ring_norsz\[0\]
*460 tdc0\.w_ring_norsz\[10\]
*461 tdc0\.w_ring_norsz\[11\]
*462 tdc0\.w_ring_norsz\[12\]
*463 tdc0\.w_ring_norsz\[13\]
*464 tdc0\.w_ring_norsz\[14\]
*465 tdc0\.w_ring_norsz\[15\]
*466 tdc0\.w_ring_norsz\[16\]
*467 tdc0\.w_ring_norsz\[17\]
*468 tdc0\.w_ring_norsz\[18\]
*469 tdc0\.w_ring_norsz\[19\]
*470 tdc0\.w_ring_norsz\[1\]
*471 tdc0\.w_ring_norsz\[20\]
*472 tdc0\.w_ring_norsz\[21\]
*473 tdc0\.w_ring_norsz\[22\]
*474 tdc0\.w_ring_norsz\[23\]
*475 tdc0\.w_ring_norsz\[24\]
*476 tdc0\.w_ring_norsz\[25\]
*477 tdc0\.w_ring_norsz\[26\]
*478 tdc0\.w_ring_norsz\[27\]
*479 tdc0\.w_ring_norsz\[28\]
*480 tdc0\.w_ring_norsz\[29\]
*481 tdc0\.w_ring_norsz\[2\]
*482 tdc0\.w_ring_norsz\[30\]
*483 tdc0\.w_ring_norsz\[31\]
*484 tdc0\.w_ring_norsz\[3\]
*485 tdc0\.w_ring_norsz\[4\]
*486 tdc0\.w_ring_norsz\[5\]
*487 tdc0\.w_ring_norsz\[6\]
*488 tdc0\.w_ring_norsz\[7\]
*489 tdc0\.w_ring_norsz\[8\]
*490 tdc0\.w_ring_norsz\[9\]
*491 tdc1\.r_dly_store_ctr\[0\]
*492 tdc1\.r_dly_store_ctr\[10\]
*493 tdc1\.r_dly_store_ctr\[11\]
*494 tdc1\.r_dly_store_ctr\[12\]
*495 tdc1\.r_dly_store_ctr\[13\]
*496 tdc1\.r_dly_store_ctr\[14\]
*497 tdc1\.r_dly_store_ctr\[15\]
*498 tdc1\.r_dly_store_ctr\[1\]
*499 tdc1\.r_dly_store_ctr\[2\]
*500 tdc1\.r_dly_store_ctr\[3\]
*501 tdc1\.r_dly_store_ctr\[4\]
*502 tdc1\.r_dly_store_ctr\[5\]
*503 tdc1\.r_dly_store_ctr\[6\]
*504 tdc1\.r_dly_store_ctr\[7\]
*505 tdc1\.r_dly_store_ctr\[8\]
*506 tdc1\.r_dly_store_ctr\[9\]
*507 tdc1\.r_dly_store_ring\[0\]
*508 tdc1\.r_dly_store_ring\[10\]
*509 tdc1\.r_dly_store_ring\[11\]
*510 tdc1\.r_dly_store_ring\[12\]
*511 tdc1\.r_dly_store_ring\[13\]
*512 tdc1\.r_dly_store_ring\[14\]
*513 tdc1\.r_dly_store_ring\[15\]
*514 tdc1\.r_dly_store_ring\[16\]
*515 tdc1\.r_dly_store_ring\[17\]
*516 tdc1\.r_dly_store_ring\[18\]
*517 tdc1\.r_dly_store_ring\[19\]
*518 tdc1\.r_dly_store_ring\[1\]
*519 tdc1\.r_dly_store_ring\[20\]
*520 tdc1\.r_dly_store_ring\[21\]
*521 tdc1\.r_dly_store_ring\[22\]
*522 tdc1\.r_dly_store_ring\[23\]
*523 tdc1\.r_dly_store_ring\[24\]
*524 tdc1\.r_dly_store_ring\[25\]
*525 tdc1\.r_dly_store_ring\[26\]
*526 tdc1\.r_dly_store_ring\[27\]
*527 tdc1\.r_dly_store_ring\[28\]
*528 tdc1\.r_dly_store_ring\[29\]
*529 tdc1\.r_dly_store_ring\[2\]
*530 tdc1\.r_dly_store_ring\[30\]
*531 tdc1\.r_dly_store_ring\[31\]
*532 tdc1\.r_dly_store_ring\[3\]
*533 tdc1\.r_dly_store_ring\[4\]
*534 tdc1\.r_dly_store_ring\[5\]
*535 tdc1\.r_dly_store_ring\[6\]
*536 tdc1\.r_dly_store_ring\[7\]
*537 tdc1\.r_dly_store_ring\[8\]
*538 tdc1\.r_dly_store_ring\[9\]
*539 tdc1\.r_ring_ctr\[0\]
*540 tdc1\.r_ring_ctr\[10\]
*541 tdc1\.r_ring_ctr\[11\]
*542 tdc1\.r_ring_ctr\[12\]
*543 tdc1\.r_ring_ctr\[13\]
*544 tdc1\.r_ring_ctr\[14\]
*545 tdc1\.r_ring_ctr\[15\]
*546 tdc1\.r_ring_ctr\[1\]
*547 tdc1\.r_ring_ctr\[2\]
*548 tdc1\.r_ring_ctr\[3\]
*549 tdc1\.r_ring_ctr\[4\]
*550 tdc1\.r_ring_ctr\[5\]
*551 tdc1\.r_ring_ctr\[6\]
*552 tdc1\.r_ring_ctr\[7\]
*553 tdc1\.r_ring_ctr\[8\]
*554 tdc1\.r_ring_ctr\[9\]
*555 tdc1\.w_dly_stop\[0\]
*556 tdc1\.w_dly_stop\[1\]
*557 tdc1\.w_dly_stop\[2\]
*558 tdc1\.w_dly_stop\[3\]
*559 tdc1\.w_dly_stop\[4\]
*560 tdc1\.w_dly_stop\[5\]
*561 tdc1\.w_reset
*562 tdc1\.w_ring_buf\[0\]
*563 tdc1\.w_ring_buf\[10\]
*564 tdc1\.w_ring_buf\[11\]
*565 tdc1\.w_ring_buf\[12\]
*566 tdc1\.w_ring_buf\[13\]
*567 tdc1\.w_ring_buf\[14\]
*568 tdc1\.w_ring_buf\[15\]
*569 tdc1\.w_ring_buf\[16\]
*570 tdc1\.w_ring_buf\[17\]
*571 tdc1\.w_ring_buf\[18\]
*572 tdc1\.w_ring_buf\[19\]
*573 tdc1\.w_ring_buf\[1\]
*574 tdc1\.w_ring_buf\[20\]
*575 tdc1\.w_ring_buf\[21\]
*576 tdc1\.w_ring_buf\[22\]
*577 tdc1\.w_ring_buf\[23\]
*578 tdc1\.w_ring_buf\[24\]
*579 tdc1\.w_ring_buf\[25\]
*580 tdc1\.w_ring_buf\[26\]
*581 tdc1\.w_ring_buf\[27\]
*582 tdc1\.w_ring_buf\[28\]
*583 tdc1\.w_ring_buf\[29\]
*584 tdc1\.w_ring_buf\[2\]
*585 tdc1\.w_ring_buf\[30\]
*586 tdc1\.w_ring_buf\[31\]
*587 tdc1\.w_ring_buf\[3\]
*588 tdc1\.w_ring_buf\[4\]
*589 tdc1\.w_ring_buf\[5\]
*590 tdc1\.w_ring_buf\[6\]
*591 tdc1\.w_ring_buf\[7\]
*592 tdc1\.w_ring_buf\[8\]
*593 tdc1\.w_ring_buf\[9\]
*594 tdc1\.w_ring_int_norsz\[0\]
*595 tdc1\.w_ring_int_norsz\[10\]
*596 tdc1\.w_ring_int_norsz\[11\]
*597 tdc1\.w_ring_int_norsz\[12\]
*598 tdc1\.w_ring_int_norsz\[13\]
*599 tdc1\.w_ring_int_norsz\[14\]
*600 tdc1\.w_ring_int_norsz\[15\]
*601 tdc1\.w_ring_int_norsz\[16\]
*602 tdc1\.w_ring_int_norsz\[17\]
*603 tdc1\.w_ring_int_norsz\[18\]
*604 tdc1\.w_ring_int_norsz\[19\]
*605 tdc1\.w_ring_int_norsz\[1\]
*606 tdc1\.w_ring_int_norsz\[20\]
*607 tdc1\.w_ring_int_norsz\[21\]
*608 tdc1\.w_ring_int_norsz\[22\]
*609 tdc1\.w_ring_int_norsz\[23\]
*610 tdc1\.w_ring_int_norsz\[24\]
*611 tdc1\.w_ring_int_norsz\[25\]
*612 tdc1\.w_ring_int_norsz\[26\]
*613 tdc1\.w_ring_int_norsz\[27\]
*614 tdc1\.w_ring_int_norsz\[28\]
*615 tdc1\.w_ring_int_norsz\[29\]
*616 tdc1\.w_ring_int_norsz\[2\]
*617 tdc1\.w_ring_int_norsz\[30\]
*618 tdc1\.w_ring_int_norsz\[31\]
*619 tdc1\.w_ring_int_norsz\[3\]
*620 tdc1\.w_ring_int_norsz\[4\]
*621 tdc1\.w_ring_int_norsz\[5\]
*622 tdc1\.w_ring_int_norsz\[6\]
*623 tdc1\.w_ring_int_norsz\[7\]
*624 tdc1\.w_ring_int_norsz\[8\]
*625 tdc1\.w_ring_int_norsz\[9\]
*626 tdc1\.w_ring_norsz\[0\]
*627 tdc1\.w_ring_norsz\[10\]
*628 tdc1\.w_ring_norsz\[11\]
*629 tdc1\.w_ring_norsz\[12\]
*630 tdc1\.w_ring_norsz\[13\]
*631 tdc1\.w_ring_norsz\[14\]
*632 tdc1\.w_ring_norsz\[15\]
*633 tdc1\.w_ring_norsz\[16\]
*634 tdc1\.w_ring_norsz\[17\]
*635 tdc1\.w_ring_norsz\[18\]
*636 tdc1\.w_ring_norsz\[19\]
*637 tdc1\.w_ring_norsz\[1\]
*638 tdc1\.w_ring_norsz\[20\]
*639 tdc1\.w_ring_norsz\[21\]
*640 tdc1\.w_ring_norsz\[22\]
*641 tdc1\.w_ring_norsz\[23\]
*642 tdc1\.w_ring_norsz\[24\]
*643 tdc1\.w_ring_norsz\[25\]
*644 tdc1\.w_ring_norsz\[26\]
*645 tdc1\.w_ring_norsz\[27\]
*646 tdc1\.w_ring_norsz\[28\]
*647 tdc1\.w_ring_norsz\[29\]
*648 tdc1\.w_ring_norsz\[2\]
*649 tdc1\.w_ring_norsz\[30\]
*650 tdc1\.w_ring_norsz\[31\]
*651 tdc1\.w_ring_norsz\[3\]
*652 tdc1\.w_ring_norsz\[4\]
*653 tdc1\.w_ring_norsz\[5\]
*654 tdc1\.w_ring_norsz\[6\]
*655 tdc1\.w_ring_norsz\[7\]
*656 tdc1\.w_ring_norsz\[8\]
*657 tdc1\.w_ring_norsz\[9\]
*658 FILLER_0_0_109
*659 FILLER_0_0_113
*660 FILLER_0_0_125
*661 FILLER_0_0_137
*662 FILLER_0_0_141
*663 FILLER_0_0_15
*664 FILLER_0_0_153
*665 FILLER_0_0_165
*666 FILLER_0_0_169
*667 FILLER_0_0_181
*668 FILLER_0_0_193
*669 FILLER_0_0_197
*670 FILLER_0_0_209
*671 FILLER_0_0_221
*672 FILLER_0_0_225
*673 FILLER_0_0_237
*674 FILLER_0_0_249
*675 FILLER_0_0_253
*676 FILLER_0_0_265
*677 FILLER_0_0_27
*678 FILLER_0_0_277
*679 FILLER_0_0_281
*680 FILLER_0_0_29
*681 FILLER_0_0_293
*682 FILLER_0_0_3
*683 FILLER_0_0_305
*684 FILLER_0_0_309
*685 FILLER_0_0_321
*686 FILLER_0_0_333
*687 FILLER_0_0_41
*688 FILLER_0_0_53
*689 FILLER_0_0_57
*690 FILLER_0_0_69
*691 FILLER_0_0_81
*692 FILLER_0_0_85
*693 FILLER_0_0_97
*694 FILLER_0_10_109
*695 FILLER_0_10_121
*696 FILLER_0_10_133
*697 FILLER_0_10_139
*698 FILLER_0_10_141
*699 FILLER_0_10_15
*700 FILLER_0_10_153
*701 FILLER_0_10_165
*702 FILLER_0_10_177
*703 FILLER_0_10_189
*704 FILLER_0_10_195
*705 FILLER_0_10_197
*706 FILLER_0_10_209
*707 FILLER_0_10_221
*708 FILLER_0_10_233
*709 FILLER_0_10_245
*710 FILLER_0_10_251
*711 FILLER_0_10_253
*712 FILLER_0_10_265
*713 FILLER_0_10_27
*714 FILLER_0_10_277
*715 FILLER_0_10_289
*716 FILLER_0_10_29
*717 FILLER_0_10_3
*718 FILLER_0_10_301
*719 FILLER_0_10_307
*720 FILLER_0_10_309
*721 FILLER_0_10_321
*722 FILLER_0_10_333
*723 FILLER_0_10_41
*724 FILLER_0_10_53
*725 FILLER_0_10_65
*726 FILLER_0_10_77
*727 FILLER_0_10_83
*728 FILLER_0_10_85
*729 FILLER_0_10_97
*730 FILLER_0_11_105
*731 FILLER_0_11_111
*732 FILLER_0_11_113
*733 FILLER_0_11_125
*734 FILLER_0_11_137
*735 FILLER_0_11_149
*736 FILLER_0_11_15
*737 FILLER_0_11_161
*738 FILLER_0_11_167
*739 FILLER_0_11_169
*740 FILLER_0_11_181
*741 FILLER_0_11_193
*742 FILLER_0_11_205
*743 FILLER_0_11_217
*744 FILLER_0_11_223
*745 FILLER_0_11_225
*746 FILLER_0_11_237
*747 FILLER_0_11_249
*748 FILLER_0_11_261
*749 FILLER_0_11_27
*750 FILLER_0_11_273
*751 FILLER_0_11_279
*752 FILLER_0_11_281
*753 FILLER_0_11_293
*754 FILLER_0_11_3
*755 FILLER_0_11_305
*756 FILLER_0_11_317
*757 FILLER_0_11_329
*758 FILLER_0_11_39
*759 FILLER_0_11_51
*760 FILLER_0_11_55
*761 FILLER_0_11_57
*762 FILLER_0_11_69
*763 FILLER_0_11_81
*764 FILLER_0_11_93
*765 FILLER_0_12_109
*766 FILLER_0_12_121
*767 FILLER_0_12_133
*768 FILLER_0_12_139
*769 FILLER_0_12_141
*770 FILLER_0_12_15
*771 FILLER_0_12_153
*772 FILLER_0_12_165
*773 FILLER_0_12_177
*774 FILLER_0_12_189
*775 FILLER_0_12_195
*776 FILLER_0_12_197
*777 FILLER_0_12_209
*778 FILLER_0_12_221
*779 FILLER_0_12_233
*780 FILLER_0_12_245
*781 FILLER_0_12_251
*782 FILLER_0_12_253
*783 FILLER_0_12_265
*784 FILLER_0_12_27
*785 FILLER_0_12_277
*786 FILLER_0_12_289
*787 FILLER_0_12_29
*788 FILLER_0_12_3
*789 FILLER_0_12_301
*790 FILLER_0_12_307
*791 FILLER_0_12_309
*792 FILLER_0_12_321
*793 FILLER_0_12_333
*794 FILLER_0_12_41
*795 FILLER_0_12_53
*796 FILLER_0_12_65
*797 FILLER_0_12_77
*798 FILLER_0_12_83
*799 FILLER_0_12_85
*800 FILLER_0_12_97
*801 FILLER_0_13_105
*802 FILLER_0_13_111
*803 FILLER_0_13_113
*804 FILLER_0_13_125
*805 FILLER_0_13_137
*806 FILLER_0_13_149
*807 FILLER_0_13_15
*808 FILLER_0_13_161
*809 FILLER_0_13_167
*810 FILLER_0_13_169
*811 FILLER_0_13_181
*812 FILLER_0_13_193
*813 FILLER_0_13_205
*814 FILLER_0_13_217
*815 FILLER_0_13_223
*816 FILLER_0_13_225
*817 FILLER_0_13_237
*818 FILLER_0_13_249
*819 FILLER_0_13_261
*820 FILLER_0_13_27
*821 FILLER_0_13_273
*822 FILLER_0_13_279
*823 FILLER_0_13_281
*824 FILLER_0_13_293
*825 FILLER_0_13_3
*826 FILLER_0_13_305
*827 FILLER_0_13_317
*828 FILLER_0_13_329
*829 FILLER_0_13_39
*830 FILLER_0_13_51
*831 FILLER_0_13_55
*832 FILLER_0_13_57
*833 FILLER_0_13_69
*834 FILLER_0_13_81
*835 FILLER_0_13_93
*836 FILLER_0_14_109
*837 FILLER_0_14_121
*838 FILLER_0_14_133
*839 FILLER_0_14_139
*840 FILLER_0_14_141
*841 FILLER_0_14_15
*842 FILLER_0_14_153
*843 FILLER_0_14_165
*844 FILLER_0_14_177
*845 FILLER_0_14_189
*846 FILLER_0_14_195
*847 FILLER_0_14_197
*848 FILLER_0_14_209
*849 FILLER_0_14_221
*850 FILLER_0_14_233
*851 FILLER_0_14_245
*852 FILLER_0_14_251
*853 FILLER_0_14_253
*854 FILLER_0_14_265
*855 FILLER_0_14_27
*856 FILLER_0_14_277
*857 FILLER_0_14_289
*858 FILLER_0_14_29
*859 FILLER_0_14_3
*860 FILLER_0_14_301
*861 FILLER_0_14_307
*862 FILLER_0_14_309
*863 FILLER_0_14_321
*864 FILLER_0_14_333
*865 FILLER_0_14_41
*866 FILLER_0_14_53
*867 FILLER_0_14_65
*868 FILLER_0_14_77
*869 FILLER_0_14_83
*870 FILLER_0_14_85
*871 FILLER_0_14_97
*872 FILLER_0_15_105
*873 FILLER_0_15_111
*874 FILLER_0_15_113
*875 FILLER_0_15_125
*876 FILLER_0_15_137
*877 FILLER_0_15_149
*878 FILLER_0_15_15
*879 FILLER_0_15_161
*880 FILLER_0_15_167
*881 FILLER_0_15_169
*882 FILLER_0_15_181
*883 FILLER_0_15_193
*884 FILLER_0_15_205
*885 FILLER_0_15_217
*886 FILLER_0_15_223
*887 FILLER_0_15_225
*888 FILLER_0_15_237
*889 FILLER_0_15_249
*890 FILLER_0_15_261
*891 FILLER_0_15_27
*892 FILLER_0_15_273
*893 FILLER_0_15_279
*894 FILLER_0_15_281
*895 FILLER_0_15_293
*896 FILLER_0_15_3
*897 FILLER_0_15_305
*898 FILLER_0_15_317
*899 FILLER_0_15_329
*900 FILLER_0_15_39
*901 FILLER_0_15_51
*902 FILLER_0_15_55
*903 FILLER_0_15_57
*904 FILLER_0_15_69
*905 FILLER_0_15_81
*906 FILLER_0_15_93
*907 FILLER_0_16_109
*908 FILLER_0_16_121
*909 FILLER_0_16_126
*910 FILLER_0_16_130
*911 FILLER_0_16_138
*912 FILLER_0_16_148
*913 FILLER_0_16_15
*914 FILLER_0_16_160
*915 FILLER_0_16_172
*916 FILLER_0_16_184
*917 FILLER_0_16_197
*918 FILLER_0_16_209
*919 FILLER_0_16_221
*920 FILLER_0_16_233
*921 FILLER_0_16_245
*922 FILLER_0_16_251
*923 FILLER_0_16_253
*924 FILLER_0_16_265
*925 FILLER_0_16_27
*926 FILLER_0_16_277
*927 FILLER_0_16_289
*928 FILLER_0_16_29
*929 FILLER_0_16_3
*930 FILLER_0_16_301
*931 FILLER_0_16_307
*932 FILLER_0_16_309
*933 FILLER_0_16_321
*934 FILLER_0_16_333
*935 FILLER_0_16_41
*936 FILLER_0_16_53
*937 FILLER_0_16_65
*938 FILLER_0_16_77
*939 FILLER_0_16_83
*940 FILLER_0_16_85
*941 FILLER_0_16_97
*942 FILLER_0_17_105
*943 FILLER_0_17_110
*944 FILLER_0_17_113
*945 FILLER_0_17_139
*946 FILLER_0_17_15
*947 FILLER_0_17_166
*948 FILLER_0_17_169
*949 FILLER_0_17_175
*950 FILLER_0_17_183
*951 FILLER_0_17_190
*952 FILLER_0_17_202
*953 FILLER_0_17_211
*954 FILLER_0_17_223
*955 FILLER_0_17_230
*956 FILLER_0_17_245
*957 FILLER_0_17_255
*958 FILLER_0_17_267
*959 FILLER_0_17_27
*960 FILLER_0_17_279
*961 FILLER_0_17_281
*962 FILLER_0_17_293
*963 FILLER_0_17_3
*964 FILLER_0_17_305
*965 FILLER_0_17_317
*966 FILLER_0_17_329
*967 FILLER_0_17_39
*968 FILLER_0_17_51
*969 FILLER_0_17_55
*970 FILLER_0_17_57
*971 FILLER_0_17_69
*972 FILLER_0_17_81
*973 FILLER_0_17_93
*974 FILLER_0_18_116
*975 FILLER_0_18_121
*976 FILLER_0_18_128
*977 FILLER_0_18_148
*978 FILLER_0_18_15
*979 FILLER_0_18_157
*980 FILLER_0_18_169
*981 FILLER_0_18_197
*982 FILLER_0_18_218
*983 FILLER_0_18_222
*984 FILLER_0_18_250
*985 FILLER_0_18_253
*986 FILLER_0_18_27
*987 FILLER_0_18_278
*988 FILLER_0_18_29
*989 FILLER_0_18_290
*990 FILLER_0_18_294
*991 FILLER_0_18_3
*992 FILLER_0_18_306
*993 FILLER_0_18_309
*994 FILLER_0_18_321
*995 FILLER_0_18_333
*996 FILLER_0_18_41
*997 FILLER_0_18_53
*998 FILLER_0_18_59
*999 FILLER_0_18_63
*1000 FILLER_0_18_88
*1001 FILLER_0_19_105
*1002 FILLER_0_19_111
*1003 FILLER_0_19_113
*1004 FILLER_0_19_143
*1005 FILLER_0_19_15
*1006 FILLER_0_19_164
*1007 FILLER_0_19_169
*1008 FILLER_0_19_178
*1009 FILLER_0_19_193
*1010 FILLER_0_19_205
*1011 FILLER_0_19_209
*1012 FILLER_0_19_216
*1013 FILLER_0_19_235
*1014 FILLER_0_19_259
*1015 FILLER_0_19_267
*1016 FILLER_0_19_271
*1017 FILLER_0_19_279
*1018 FILLER_0_19_3
*1019 FILLER_0_19_301
*1020 FILLER_0_19_306
*1021 FILLER_0_19_314
*1022 FILLER_0_19_326
*1023 FILLER_0_19_334
*1024 FILLER_0_19_54
*1025 FILLER_0_19_80
*1026 FILLER_0_19_88
*1027 FILLER_0_19_93
*1028 FILLER_0_1_105
*1029 FILLER_0_1_111
*1030 FILLER_0_1_113
*1031 FILLER_0_1_125
*1032 FILLER_0_1_137
*1033 FILLER_0_1_149
*1034 FILLER_0_1_15
*1035 FILLER_0_1_161
*1036 FILLER_0_1_167
*1037 FILLER_0_1_169
*1038 FILLER_0_1_181
*1039 FILLER_0_1_193
*1040 FILLER_0_1_205
*1041 FILLER_0_1_217
*1042 FILLER_0_1_223
*1043 FILLER_0_1_225
*1044 FILLER_0_1_237
*1045 FILLER_0_1_249
*1046 FILLER_0_1_261
*1047 FILLER_0_1_27
*1048 FILLER_0_1_273
*1049 FILLER_0_1_279
*1050 FILLER_0_1_281
*1051 FILLER_0_1_293
*1052 FILLER_0_1_3
*1053 FILLER_0_1_305
*1054 FILLER_0_1_317
*1055 FILLER_0_1_329
*1056 FILLER_0_1_39
*1057 FILLER_0_1_51
*1058 FILLER_0_1_55
*1059 FILLER_0_1_57
*1060 FILLER_0_1_69
*1061 FILLER_0_1_81
*1062 FILLER_0_1_93
*1063 FILLER_0_20_111
*1064 FILLER_0_20_119
*1065 FILLER_0_20_125
*1066 FILLER_0_20_137
*1067 FILLER_0_20_148
*1068 FILLER_0_20_15
*1069 FILLER_0_20_158
*1070 FILLER_0_20_174
*1071 FILLER_0_20_200
*1072 FILLER_0_20_218
*1073 FILLER_0_20_243
*1074 FILLER_0_20_251
*1075 FILLER_0_20_253
*1076 FILLER_0_20_259
*1077 FILLER_0_20_268
*1078 FILLER_0_20_27
*1079 FILLER_0_20_273
*1080 FILLER_0_20_281
*1081 FILLER_0_20_29
*1082 FILLER_0_20_3
*1083 FILLER_0_20_309
*1084 FILLER_0_20_317
*1085 FILLER_0_20_323
*1086 FILLER_0_20_41
*1087 FILLER_0_20_46
*1088 FILLER_0_20_55
*1089 FILLER_0_20_70
*1090 FILLER_0_20_74
*1091 FILLER_0_20_83
*1092 FILLER_0_21_101
*1093 FILLER_0_21_109
*1094 FILLER_0_21_129
*1095 FILLER_0_21_135
*1096 FILLER_0_21_15
*1097 FILLER_0_21_169
*1098 FILLER_0_21_180
*1099 FILLER_0_21_194
*1100 FILLER_0_21_213
*1101 FILLER_0_21_221
*1102 FILLER_0_21_241
*1103 FILLER_0_21_245
*1104 FILLER_0_21_250
*1105 FILLER_0_21_278
*1106 FILLER_0_21_29
*1107 FILLER_0_21_3
*1108 FILLER_0_21_308
*1109 FILLER_0_21_330
*1110 FILLER_0_21_334
*1111 FILLER_0_21_57
*1112 FILLER_0_21_63
*1113 FILLER_0_21_74
*1114 FILLER_0_21_86
*1115 FILLER_0_22_106
*1116 FILLER_0_22_12
*1117 FILLER_0_22_141
*1118 FILLER_0_22_153
*1119 FILLER_0_22_165
*1120 FILLER_0_22_197
*1121 FILLER_0_22_20
*1122 FILLER_0_22_209
*1123 FILLER_0_22_232
*1124 FILLER_0_22_253
*1125 FILLER_0_22_272
*1126 FILLER_0_22_279
*1127 FILLER_0_22_285
*1128 FILLER_0_22_289
*1129 FILLER_0_22_29
*1130 FILLER_0_22_3
*1131 FILLER_0_22_301
*1132 FILLER_0_22_309
*1133 FILLER_0_22_333
*1134 FILLER_0_22_38
*1135 FILLER_0_22_44
*1136 FILLER_0_22_53
*1137 FILLER_0_22_64
*1138 FILLER_0_22_85
*1139 FILLER_0_22_89
*1140 FILLER_0_23_109
*1141 FILLER_0_23_113
*1142 FILLER_0_23_117
*1143 FILLER_0_23_129
*1144 FILLER_0_23_164
*1145 FILLER_0_23_169
*1146 FILLER_0_23_181
*1147 FILLER_0_23_200
*1148 FILLER_0_23_211
*1149 FILLER_0_23_223
*1150 FILLER_0_23_228
*1151 FILLER_0_23_248
*1152 FILLER_0_23_256
*1153 FILLER_0_23_274
*1154 FILLER_0_23_281
*1155 FILLER_0_23_29
*1156 FILLER_0_23_3
*1157 FILLER_0_23_305
*1158 FILLER_0_23_316
*1159 FILLER_0_23_325
*1160 FILLER_0_23_333
*1161 FILLER_0_23_51
*1162 FILLER_0_23_55
*1163 FILLER_0_23_64
*1164 FILLER_0_23_97
*1165 FILLER_0_24_10
*1166 FILLER_0_24_115
*1167 FILLER_0_24_133
*1168 FILLER_0_24_139
*1169 FILLER_0_24_141
*1170 FILLER_0_24_147
*1171 FILLER_0_24_151
*1172 FILLER_0_24_169
*1173 FILLER_0_24_193
*1174 FILLER_0_24_197
*1175 FILLER_0_24_209
*1176 FILLER_0_24_217
*1177 FILLER_0_24_22
*1178 FILLER_0_24_225
*1179 FILLER_0_24_233
*1180 FILLER_0_24_251
*1181 FILLER_0_24_253
*1182 FILLER_0_24_278
*1183 FILLER_0_24_282
*1184 FILLER_0_24_287
*1185 FILLER_0_24_29
*1186 FILLER_0_24_299
*1187 FILLER_0_24_309
*1188 FILLER_0_24_331
*1189 FILLER_0_24_41
*1190 FILLER_0_24_53
*1191 FILLER_0_24_71
*1192 FILLER_0_24_83
*1193 FILLER_0_24_88
*1194 FILLER_0_24_96
*1195 FILLER_0_25_111
*1196 FILLER_0_25_113
*1197 FILLER_0_25_121
*1198 FILLER_0_25_150
*1199 FILLER_0_25_165
*1200 FILLER_0_25_185
*1201 FILLER_0_25_197
*1202 FILLER_0_25_219
*1203 FILLER_0_25_223
*1204 FILLER_0_25_241
*1205 FILLER_0_25_253
*1206 FILLER_0_25_257
*1207 FILLER_0_25_274
*1208 FILLER_0_25_288
*1209 FILLER_0_25_3
*1210 FILLER_0_25_30
*1211 FILLER_0_25_300
*1212 FILLER_0_25_306
*1213 FILLER_0_25_318
*1214 FILLER_0_25_37
*1215 FILLER_0_25_44
*1216 FILLER_0_25_73
*1217 FILLER_0_25_92
*1218 FILLER_0_26_128
*1219 FILLER_0_26_149
*1220 FILLER_0_26_15
*1221 FILLER_0_26_187
*1222 FILLER_0_26_195
*1223 FILLER_0_26_205
*1224 FILLER_0_26_211
*1225 FILLER_0_26_23
*1226 FILLER_0_26_231
*1227 FILLER_0_26_250
*1228 FILLER_0_26_269
*1229 FILLER_0_26_273
*1230 FILLER_0_26_29
*1231 FILLER_0_26_3
*1232 FILLER_0_26_306
*1233 FILLER_0_26_309
*1234 FILLER_0_26_321
*1235 FILLER_0_26_333
*1236 FILLER_0_26_50
*1237 FILLER_0_26_69
*1238 FILLER_0_26_83
*1239 FILLER_0_26_92
*1240 FILLER_0_27_102
*1241 FILLER_0_27_111
*1242 FILLER_0_27_129
*1243 FILLER_0_27_154
*1244 FILLER_0_27_166
*1245 FILLER_0_27_179
*1246 FILLER_0_27_215
*1247 FILLER_0_27_22
*1248 FILLER_0_27_223
*1249 FILLER_0_27_230
*1250 FILLER_0_27_241
*1251 FILLER_0_27_260
*1252 FILLER_0_27_281
*1253 FILLER_0_27_290
*1254 FILLER_0_27_3
*1255 FILLER_0_27_30
*1256 FILLER_0_27_318
*1257 FILLER_0_27_37
*1258 FILLER_0_27_55
*1259 FILLER_0_27_57
*1260 FILLER_0_27_69
*1261 FILLER_0_27_9
*1262 FILLER_0_28_121
*1263 FILLER_0_28_141
*1264 FILLER_0_28_152
*1265 FILLER_0_28_156
*1266 FILLER_0_28_182
*1267 FILLER_0_28_187
*1268 FILLER_0_28_195
*1269 FILLER_0_28_197
*1270 FILLER_0_28_226
*1271 FILLER_0_28_233
*1272 FILLER_0_28_251
*1273 FILLER_0_28_253
*1274 FILLER_0_28_272
*1275 FILLER_0_28_29
*1276 FILLER_0_28_3
*1277 FILLER_0_28_300
*1278 FILLER_0_28_325
*1279 FILLER_0_28_333
*1280 FILLER_0_28_46
*1281 FILLER_0_28_64
*1282 FILLER_0_28_85
*1283 FILLER_0_29_110
*1284 FILLER_0_29_116
*1285 FILLER_0_29_12
*1286 FILLER_0_29_128
*1287 FILLER_0_29_146
*1288 FILLER_0_29_158
*1289 FILLER_0_29_162
*1290 FILLER_0_29_169
*1291 FILLER_0_29_195
*1292 FILLER_0_29_214
*1293 FILLER_0_29_222
*1294 FILLER_0_29_225
*1295 FILLER_0_29_236
*1296 FILLER_0_29_24
*1297 FILLER_0_29_247
*1298 FILLER_0_29_264
*1299 FILLER_0_29_278
*1300 FILLER_0_29_3
*1301 FILLER_0_29_302
*1302 FILLER_0_29_318
*1303 FILLER_0_29_48
*1304 FILLER_0_29_57
*1305 FILLER_0_29_69
*1306 FILLER_0_29_80
*1307 FILLER_0_29_92
*1308 FILLER_0_2_109
*1309 FILLER_0_2_121
*1310 FILLER_0_2_133
*1311 FILLER_0_2_139
*1312 FILLER_0_2_141
*1313 FILLER_0_2_15
*1314 FILLER_0_2_153
*1315 FILLER_0_2_165
*1316 FILLER_0_2_177
*1317 FILLER_0_2_189
*1318 FILLER_0_2_195
*1319 FILLER_0_2_197
*1320 FILLER_0_2_209
*1321 FILLER_0_2_221
*1322 FILLER_0_2_233
*1323 FILLER_0_2_245
*1324 FILLER_0_2_251
*1325 FILLER_0_2_253
*1326 FILLER_0_2_265
*1327 FILLER_0_2_27
*1328 FILLER_0_2_277
*1329 FILLER_0_2_289
*1330 FILLER_0_2_29
*1331 FILLER_0_2_3
*1332 FILLER_0_2_301
*1333 FILLER_0_2_307
*1334 FILLER_0_2_309
*1335 FILLER_0_2_321
*1336 FILLER_0_2_333
*1337 FILLER_0_2_41
*1338 FILLER_0_2_53
*1339 FILLER_0_2_65
*1340 FILLER_0_2_77
*1341 FILLER_0_2_83
*1342 FILLER_0_2_85
*1343 FILLER_0_2_97
*1344 FILLER_0_30_101
*1345 FILLER_0_30_129
*1346 FILLER_0_30_139
*1347 FILLER_0_30_141
*1348 FILLER_0_30_207
*1349 FILLER_0_30_246
*1350 FILLER_0_30_253
*1351 FILLER_0_30_265
*1352 FILLER_0_30_27
*1353 FILLER_0_30_273
*1354 FILLER_0_30_282
*1355 FILLER_0_30_3
*1356 FILLER_0_30_313
*1357 FILLER_0_30_320
*1358 FILLER_0_30_332
*1359 FILLER_0_30_45
*1360 FILLER_0_30_65
*1361 FILLER_0_30_74
*1362 FILLER_0_30_79
*1363 FILLER_0_30_83
*1364 FILLER_0_31_110
*1365 FILLER_0_31_12
*1366 FILLER_0_31_120
*1367 FILLER_0_31_132
*1368 FILLER_0_31_145
*1369 FILLER_0_31_149
*1370 FILLER_0_31_159
*1371 FILLER_0_31_163
*1372 FILLER_0_31_167
*1373 FILLER_0_31_169
*1374 FILLER_0_31_177
*1375 FILLER_0_31_194
*1376 FILLER_0_31_200
*1377 FILLER_0_31_220
*1378 FILLER_0_31_225
*1379 FILLER_0_31_237
*1380 FILLER_0_31_24
*1381 FILLER_0_31_267
*1382 FILLER_0_31_275
*1383 FILLER_0_31_279
*1384 FILLER_0_31_3
*1385 FILLER_0_31_301
*1386 FILLER_0_31_312
*1387 FILLER_0_31_332
*1388 FILLER_0_31_36
*1389 FILLER_0_31_54
*1390 FILLER_0_31_60
*1391 FILLER_0_31_7
*1392 FILLER_0_32_111
*1393 FILLER_0_32_131
*1394 FILLER_0_32_139
*1395 FILLER_0_32_15
*1396 FILLER_0_32_157
*1397 FILLER_0_32_169
*1398 FILLER_0_32_181
*1399 FILLER_0_32_189
*1400 FILLER_0_32_208
*1401 FILLER_0_32_219
*1402 FILLER_0_32_224
*1403 FILLER_0_32_232
*1404 FILLER_0_32_249
*1405 FILLER_0_32_253
*1406 FILLER_0_32_266
*1407 FILLER_0_32_27
*1408 FILLER_0_32_274
*1409 FILLER_0_32_280
*1410 FILLER_0_32_29
*1411 FILLER_0_32_295
*1412 FILLER_0_32_3