*SPEF "ieee 1481-1999"
*DESIGN "tt_um_hpretl_tt06_tdc_v2"
*DATE "13:43:36 Sunday April 14, 2024"
*VENDOR "The OpenROAD Project"
*PROGRAM "OpenROAD"
*VERSION "0889970d1790a2617e69f253221b8bd7626e51dc"
*DESIGN_FLOW "NAME_SCOPE LOCAL" "PIN_CAP NONE"
*DIVIDER /
*DELIMITER :
*BUS_DELIMITER []
*T_UNIT 1 NS
*C_UNIT 1 PF
*R_UNIT 1 OHM
*L_UNIT 1 HENRY

*NAME_MAP
*3 clk
*4 ena
*5 rst_n
*6 ui_in[0]
*7 ui_in[1]
*8 ui_in[2]
*9 ui_in[3]
*10 ui_in[4]
*11 ui_in[5]
*12 ui_in[6]
*13 ui_in[7]
*14 uio_in[0]
*15 uio_in[1]
*16 uio_in[2]
*17 uio_in[3]
*18 uio_in[4]
*19 uio_in[5]
*20 uio_in[6]
*21 uio_in[7]
*22 net75
*23 net76
*24 net77
*25 net78
*26 net79
*27 net80
*28 net81
*29 net82
*30 net83
*31 net84
*32 net85
*33 net86
*34 net87
*35 net88
*36 net89
*37 net90
*38 uo_out[0]
*39 uo_out[1]
*40 uo_out[2]
*41 uo_out[3]
*42 uo_out[4]
*43 uo_out[5]
*44 uo_out[6]
*45 uo_out[7]
*46 _000_
*47 _001_
*48 _002_
*49 _003_
*50 _004_
*51 _005_
*52 _006_
*53 _007_
*54 _008_
*55 _009_
*56 _010_
*57 _011_
*58 _012_
*59 _013_
*60 _014_
*61 _015_
*62 _016_
*63 _017_
*64 _018_
*65 _019_
*66 _020_
*67 _021_
*68 _022_
*69 _023_
*70 _024_
*71 _025_
*72 _026_
*73 _027_
*74 _028_
*75 _029_
*76 _030_
*77 _031_
*78 _032_
*79 _033_
*80 _034_
*81 _035_
*82 _036_
*83 _037_
*84 _038_
*85 _039_
*86 _040_
*87 _041_
*88 _042_
*89 _043_
*90 _044_
*91 _045_
*92 _046_
*93 _047_
*94 _048_
*95 _049_
*96 _050_
*97 _051_
*98 _052_
*99 _053_
*100 _054_
*101 _055_
*102 _056_
*103 _057_
*104 _058_
*105 _059_
*106 _060_
*107 _061_
*108 _062_
*109 _063_
*110 _064_
*111 _065_
*112 _066_
*113 _067_
*114 _068_
*115 _069_
*116 _070_
*117 _071_
*118 _072_
*119 _073_
*120 _074_
*121 _075_
*122 _076_
*123 _077_
*124 _078_
*125 _079_
*126 _080_
*127 _081_
*128 _082_
*129 _083_
*130 _084_
*131 _085_
*132 _086_
*133 _087_
*134 _088_
*135 _089_
*136 _090_
*137 _091_
*138 _092_
*139 _093_
*140 _094_
*141 _095_
*142 _096_
*143 _097_
*144 _098_
*145 _099_
*146 _100_
*147 _101_
*148 _102_
*149 _103_
*150 _104_
*151 _105_
*152 _106_
*153 _107_
*154 _108_
*155 _109_
*156 _110_
*157 _111_
*158 _112_
*159 _113_
*160 _114_
*161 _115_
*162 _116_
*163 _117_
*164 _118_
*165 _119_
*166 _120_
*167 _121_
*168 _122_
*169 _123_
*170 _124_
*171 _125_
*172 _126_
*173 _127_
*174 _128_
*175 _129_
*176 _130_
*177 _131_
*178 _132_
*179 _133_
*180 _134_
*181 _135_
*182 _136_
*183 _137_
*184 _138_
*185 _139_
*186 _140_
*187 _141_
*188 _142_
*189 _143_
*190 _144_
*191 _145_
*192 _146_
*193 _147_
*194 _148_
*195 _149_
*196 _150_
*197 _151_
*198 _152_
*199 _153_
*200 _154_
*201 _155_
*202 _156_
*203 _157_
*204 _158_
*205 _159_
*206 _160_
*207 _161_
*208 _162_
*209 _163_
*210 _164_
*211 _165_
*212 _166_
*213 _167_
*214 _168_
*215 _169_
*216 _170_
*217 _171_
*218 _172_
*219 _173_
*220 _174_
*221 _175_
*222 _176_
*223 _177_
*224 _178_
*225 _179_
*226 _180_
*227 _181_
*228 _182_
*229 _183_
*230 _184_
*231 _185_
*232 _186_
*233 _187_
*234 _188_
*235 _189_
*236 _190_
*237 _191_
*238 _192_
*239 _193_
*240 _194_
*241 _195_
*242 _196_
*243 net1
*244 net10
*245 net11
*246 net12
*247 net13
*248 net14
*249 net15
*250 net16
*251 net17
*252 net18
*253 net19
*254 net2
*255 net20
*256 net21
*257 net22
*258 net23
*259 net24
*260 net25
*261 net26
*262 net27
*263 net28
*264 net29
*265 net3
*266 net30
*267 net31
*268 net32
*269 net33
*270 net34
*271 net35
*272 net36
*273 net37
*274 net38
*275 net39
*276 net4
*277 net40
*278 net41
*279 net42
*280 net43
*281 net44
*282 net45
*283 net46
*284 net47
*285 net48
*286 net49
*287 net5
*288 net50
*289 net51
*290 net52
*291 net53
*292 net54
*293 net55
*294 net56
*295 net57
*296 net58
*297 net59
*298 net6
*299 net60
*300 net61
*301 net62
*302 net63
*303 net64
*304 net65
*305 net66
*306 net67
*307 net68
*308 net69
*309 net7
*310 net70
*311 net71
*312 net72
*313 net73
*314 net74
*315 net8
*316 net9
*317 tdc0\.r_dly_store_ctr\[0\]
*318 tdc0\.r_dly_store_ctr\[10\]
*319 tdc0\.r_dly_store_ctr\[11\]
*320 tdc0\.r_dly_store_ctr\[12\]
*321 tdc0\.r_dly_store_ctr\[13\]
*322 tdc0\.r_dly_store_ctr\[14\]
*323 tdc0\.r_dly_store_ctr\[15\]
*324 tdc0\.r_dly_store_ctr\[1\]
*325 tdc0\.r_dly_store_ctr\[2\]
*326 tdc0\.r_dly_store_ctr\[3\]
*327 tdc0\.r_dly_store_ctr\[4\]
*328 tdc0\.r_dly_store_ctr\[5\]
*329 tdc0\.r_dly_store_ctr\[6\]
*330 tdc0\.r_dly_store_ctr\[7\]
*331 tdc0\.r_dly_store_ctr\[8\]
*332 tdc0\.r_dly_store_ctr\[9\]
*333 tdc0\.r_dly_store_ring\[0\]
*334 tdc0\.r_dly_store_ring\[10\]
*335 tdc0\.r_dly_store_ring\[11\]
*336 tdc0\.r_dly_store_ring\[12\]
*337 tdc0\.r_dly_store_ring\[13\]
*338 tdc0\.r_dly_store_ring\[14\]
*339 tdc0\.r_dly_store_ring\[15\]
*340 tdc0\.r_dly_store_ring\[16\]
*341 tdc0\.r_dly_store_ring\[17\]
*342 tdc0\.r_dly_store_ring\[18\]
*343 tdc0\.r_dly_store_ring\[19\]
*344 tdc0\.r_dly_store_ring\[1\]
*345 tdc0\.r_dly_store_ring\[20\]
*346 tdc0\.r_dly_store_ring\[21\]
*347 tdc0\.r_dly_store_ring\[22\]
*348 tdc0\.r_dly_store_ring\[23\]
*349 tdc0\.r_dly_store_ring\[24\]
*350 tdc0\.r_dly_store_ring\[25\]
*351 tdc0\.r_dly_store_ring\[26\]
*352 tdc0\.r_dly_store_ring\[27\]
*353 tdc0\.r_dly_store_ring\[28\]
*354 tdc0\.r_dly_store_ring\[29\]
*355 tdc0\.r_dly_store_ring\[2\]
*356 tdc0\.r_dly_store_ring\[30\]
*357 tdc0\.r_dly_store_ring\[31\]
*358 tdc0\.r_dly_store_ring\[3\]
*359 tdc0\.r_dly_store_ring\[4\]
*360 tdc0\.r_dly_store_ring\[5\]
*361 tdc0\.r_dly_store_ring\[6\]
*362 tdc0\.r_dly_store_ring\[7\]
*363 tdc0\.r_dly_store_ring\[8\]
*364 tdc0\.r_dly_store_ring\[9\]
*365 tdc0\.r_ring_ctr\[0\]
*366 tdc0\.r_ring_ctr\[10\]
*367 tdc0\.r_ring_ctr\[11\]
*368 tdc0\.r_ring_ctr\[12\]
*369 tdc0\.r_ring_ctr\[13\]
*370 tdc0\.r_ring_ctr\[14\]
*371 tdc0\.r_ring_ctr\[15\]
*372 tdc0\.r_ring_ctr\[1\]
*373 tdc0\.r_ring_ctr\[2\]
*374 tdc0\.r_ring_ctr\[3\]
*375 tdc0\.r_ring_ctr\[4\]
*376 tdc0\.r_ring_ctr\[5\]
*377 tdc0\.r_ring_ctr\[6\]
*378 tdc0\.r_ring_ctr\[7\]
*379 tdc0\.r_ring_ctr\[8\]
*380 tdc0\.r_ring_ctr\[9\]
*381 tdc0\.w_dly_stop\[0\]
*382 tdc0\.w_dly_stop\[1\]
*383 tdc0\.w_dly_stop\[2\]
*384 tdc0\.w_dly_stop\[3\]
*385 tdc0\.w_dly_stop\[4\]
*386 tdc0\.w_dly_stop\[5\]
*387 tdc0\.w_reset
*388 tdc0\.w_ring_buf\[0\]
*389 tdc0\.w_ring_buf\[10\]
*390 tdc0\.w_ring_buf\[11\]
*391 tdc0\.w_ring_buf\[12\]
*392 tdc0\.w_ring_buf\[13\]
*393 tdc0\.w_ring_buf\[14\]
*394 tdc0\.w_ring_buf\[15\]
*395 tdc0\.w_ring_buf\[16\]
*396 tdc0\.w_ring_buf\[17\]
*397 tdc0\.w_ring_buf\[18\]
*398 tdc0\.w_ring_buf\[19\]
*399 tdc0\.w_ring_buf\[1\]
*400 tdc0\.w_ring_buf\[20\]
*401 tdc0\.w_ring_buf\[21\]
*402 tdc0\.w_ring_buf\[22\]
*403 tdc0\.w_ring_buf\[23\]
*404 tdc0\.w_ring_buf\[24\]
*405 tdc0\.w_ring_buf\[25\]
*406 tdc0\.w_ring_buf\[26\]
*407 tdc0\.w_ring_buf\[27\]
*408 tdc0\.w_ring_buf\[28\]
*409 tdc0\.w_ring_buf\[29\]
*410 tdc0\.w_ring_buf\[2\]
*411 tdc0\.w_ring_buf\[30\]
*412 tdc0\.w_ring_buf\[31\]
*413 tdc0\.w_ring_buf\[3\]
*414 tdc0\.w_ring_buf\[4\]
*415 tdc0\.w_ring_buf\[5\]
*416 tdc0\.w_ring_buf\[6\]
*417 tdc0\.w_ring_buf\[7\]
*418 tdc0\.w_ring_buf\[8\]
*419 tdc0\.w_ring_buf\[9\]
*420 tdc0\.w_ring_int_norsz\[0\]
*421 tdc0\.w_ring_int_norsz\[10\]
*422 tdc0\.w_ring_int_norsz\[11\]
*423 tdc0\.w_ring_int_norsz\[12\]
*424 tdc0\.w_ring_int_norsz\[13\]
*425 tdc0\.w_ring_int_norsz\[14\]
*426 tdc0\.w_ring_int_norsz\[15\]
*427 tdc0\.w_ring_int_norsz\[16\]
*428 tdc0\.w_ring_int_norsz\[17\]
*429 tdc0\.w_ring_int_norsz\[18\]
*430 tdc0\.w_ring_int_norsz\[19\]
*431 tdc0\.w_ring_int_norsz\[1\]
*432 tdc0\.w_ring_int_norsz\[20\]
*433 tdc0\.w_ring_int_norsz\[21\]
*434 tdc0\.w_ring_int_norsz\[22\]
*435 tdc0\.w_ring_int_norsz\[23\]
*436 tdc0\.w_ring_int_norsz\[24\]
*437 tdc0\.w_ring_int_norsz\[25\]
*438 tdc0\.w_ring_int_norsz\[26\]
*439 tdc0\.w_ring_int_norsz\[27\]
*440 tdc0\.w_ring_int_norsz\[28\]
*441 tdc0\.w_ring_int_norsz\[29\]
*442 tdc0\.w_ring_int_norsz\[2\]
*443 tdc0\.w_ring_int_norsz\[30\]
*444 tdc0\.w_ring_int_norsz\[31\]
*445 tdc0\.w_ring_int_norsz\[3\]
*446 tdc0\.w_ring_int_norsz\[4\]
*447 tdc0\.w_ring_int_norsz\[5\]
*448 tdc0\.w_ring_int_norsz\[6\]
*449 tdc0\.w_ring_int_norsz\[7\]
*450 tdc0\.w_ring_int_norsz\[8\]
*451 tdc0\.w_ring_int_norsz\[9\]
*452 tdc0\.w_ring_norsz\[0\]
*453 tdc0\.w_ring_norsz\[10\]
*454 tdc0\.w_ring_norsz\[11\]
*455 tdc0\.w_ring_norsz\[12\]
*456 tdc0\.w_ring_norsz\[13\]
*457 tdc0\.w_ring_norsz\[14\]
*458 tdc0\.w_ring_norsz\[15\]
*459 tdc0\.w_ring_norsz\[16\]
*460 tdc0\.w_ring_norsz\[17\]
*461 tdc0\.w_ring_norsz\[18\]
*462 tdc0\.w_ring_norsz\[19\]
*463 tdc0\.w_ring_norsz\[1\]
*464 tdc0\.w_ring_norsz\[20\]
*465 tdc0\.w_ring_norsz\[21\]
*466 tdc0\.w_ring_norsz\[22\]
*467 tdc0\.w_ring_norsz\[23\]
*468 tdc0\.w_ring_norsz\[24\]
*469 tdc0\.w_ring_norsz\[25\]
*470 tdc0\.w_ring_norsz\[26\]
*471 tdc0\.w_ring_norsz\[27\]
*472 tdc0\.w_ring_norsz\[28\]
*473 tdc0\.w_ring_norsz\[29\]
*474 tdc0\.w_ring_norsz\[2\]
*475 tdc0\.w_ring_norsz\[30\]
*476 tdc0\.w_ring_norsz\[31\]
*477 tdc0\.w_ring_norsz\[3\]
*478 tdc0\.w_ring_norsz\[4\]
*479 tdc0\.w_ring_norsz\[5\]
*480 tdc0\.w_ring_norsz\[6\]
*481 tdc0\.w_ring_norsz\[7\]
*482 tdc0\.w_ring_norsz\[8\]
*483 tdc0\.w_ring_norsz\[9\]
*484 tdc1\.r_dly_store_ctr\[0\]
*485 tdc1\.r_dly_store_ctr\[10\]
*486 tdc1\.r_dly_store_ctr\[11\]
*487 tdc1\.r_dly_store_ctr\[12\]
*488 tdc1\.r_dly_store_ctr\[13\]
*489 tdc1\.r_dly_store_ctr\[14\]
*490 tdc1\.r_dly_store_ctr\[15\]
*491 tdc1\.r_dly_store_ctr\[1\]
*492 tdc1\.r_dly_store_ctr\[2\]
*493 tdc1\.r_dly_store_ctr\[3\]
*494 tdc1\.r_dly_store_ctr\[4\]
*495 tdc1\.r_dly_store_ctr\[5\]
*496 tdc1\.r_dly_store_ctr\[6\]
*497 tdc1\.r_dly_store_ctr\[7\]
*498 tdc1\.r_dly_store_ctr\[8\]
*499 tdc1\.r_dly_store_ctr\[9\]
*500 tdc1\.r_dly_store_ring\[0\]
*501 tdc1\.r_dly_store_ring\[10\]
*502 tdc1\.r_dly_store_ring\[11\]
*503 tdc1\.r_dly_store_ring\[12\]
*504 tdc1\.r_dly_store_ring\[13\]
*505 tdc1\.r_dly_store_ring\[14\]
*506 tdc1\.r_dly_store_ring\[15\]
*507 tdc1\.r_dly_store_ring\[16\]
*508 tdc1\.r_dly_store_ring\[17\]
*509 tdc1\.r_dly_store_ring\[18\]
*510 tdc1\.r_dly_store_ring\[19\]
*511 tdc1\.r_dly_store_ring\[1\]
*512 tdc1\.r_dly_store_ring\[20\]
*513 tdc1\.r_dly_store_ring\[21\]
*514 tdc1\.r_dly_store_ring\[22\]
*515 tdc1\.r_dly_store_ring\[23\]
*516 tdc1\.r_dly_store_ring\[24\]
*517 tdc1\.r_dly_store_ring\[25\]
*518 tdc1\.r_dly_store_ring\[26\]
*519 tdc1\.r_dly_store_ring\[27\]
*520 tdc1\.r_dly_store_ring\[28\]
*521 tdc1\.r_dly_store_ring\[29\]
*522 tdc1\.r_dly_store_ring\[2\]
*523 tdc1\.r_dly_store_ring\[30\]
*524 tdc1\.r_dly_store_ring\[31\]
*525 tdc1\.r_dly_store_ring\[3\]
*526 tdc1\.r_dly_store_ring\[4\]
*527 tdc1\.r_dly_store_ring\[5\]
*528 tdc1\.r_dly_store_ring\[6\]
*529 tdc1\.r_dly_store_ring\[7\]
*530 tdc1\.r_dly_store_ring\[8\]
*531 tdc1\.r_dly_store_ring\[9\]
*532 tdc1\.r_ring_ctr\[0\]
*533 tdc1\.r_ring_ctr\[10\]
*534 tdc1\.r_ring_ctr\[11\]
*535 tdc1\.r_ring_ctr\[12\]
*536 tdc1\.r_ring_ctr\[13\]
*537 tdc1\.r_ring_ctr\[14\]
*538 tdc1\.r_ring_ctr\[15\]
*539 tdc1\.r_ring_ctr\[1\]
*540 tdc1\.r_ring_ctr\[2\]
*541 tdc1\.r_ring_ctr\[3\]
*542 tdc1\.r_ring_ctr\[4\]
*543 tdc1\.r_ring_ctr\[5\]
*544 tdc1\.r_ring_ctr\[6\]
*545 tdc1\.r_ring_ctr\[7\]
*546 tdc1\.r_ring_ctr\[8\]
*547 tdc1\.r_ring_ctr\[9\]
*548 tdc1\.w_dly_stop\[0\]
*549 tdc1\.w_dly_stop\[1\]
*550 tdc1\.w_dly_stop\[2\]
*551 tdc1\.w_dly_stop\[3\]
*552 tdc1\.w_dly_stop\[4\]
*553 tdc1\.w_dly_stop\[5\]
*554 tdc1\.w_reset
*555 tdc1\.w_ring_buf\[0\]
*556 tdc1\.w_ring_buf\[10\]
*557 tdc1\.w_ring_buf\[11\]
*558 tdc1\.w_ring_buf\[12\]
*559 tdc1\.w_ring_buf\[13\]
*560 tdc1\.w_ring_buf\[14\]
*561 tdc1\.w_ring_buf\[15\]
*562 tdc1\.w_ring_buf\[16\]
*563 tdc1\.w_ring_buf\[17\]
*564 tdc1\.w_ring_buf\[18\]
*565 tdc1\.w_ring_buf\[19\]
*566 tdc1\.w_ring_buf\[1\]
*567 tdc1\.w_ring_buf\[20\]
*568 tdc1\.w_ring_buf\[21\]
*569 tdc1\.w_ring_buf\[22\]
*570 tdc1\.w_ring_buf\[23\]
*571 tdc1\.w_ring_buf\[24\]
*572 tdc1\.w_ring_buf\[25\]
*573 tdc1\.w_ring_buf\[26\]
*574 tdc1\.w_ring_buf\[27\]
*575 tdc1\.w_ring_buf\[28\]
*576 tdc1\.w_ring_buf\[29\]
*577 tdc1\.w_ring_buf\[2\]
*578 tdc1\.w_ring_buf\[30\]
*579 tdc1\.w_ring_buf\[31\]
*580 tdc1\.w_ring_buf\[3\]
*581 tdc1\.w_ring_buf\[4\]
*582 tdc1\.w_ring_buf\[5\]
*583 tdc1\.w_ring_buf\[6\]
*584 tdc1\.w_ring_buf\[7\]
*585 tdc1\.w_ring_buf\[8\]
*586 tdc1\.w_ring_buf\[9\]
*587 tdc1\.w_ring_int_norsz\[0\]
*588 tdc1\.w_ring_int_norsz\[10\]
*589 tdc1\.w_ring_int_norsz\[11\]
*590 tdc1\.w_ring_int_norsz\[12\]
*591 tdc1\.w_ring_int_norsz\[13\]
*592 tdc1\.w_ring_int_norsz\[14\]
*593 tdc1\.w_ring_int_norsz\[15\]
*594 tdc1\.w_ring_int_norsz\[16\]
*595 tdc1\.w_ring_int_norsz\[17\]
*596 tdc1\.w_ring_int_norsz\[18\]
*597 tdc1\.w_ring_int_norsz\[19\]
*598 tdc1\.w_ring_int_norsz\[1\]
*599 tdc1\.w_ring_int_norsz\[20\]
*600 tdc1\.w_ring_int_norsz\[21\]
*601 tdc1\.w_ring_int_norsz\[22\]
*602 tdc1\.w_ring_int_norsz\[23\]
*603 tdc1\.w_ring_int_norsz\[24\]
*604 tdc1\.w_ring_int_norsz\[25\]
*605 tdc1\.w_ring_int_norsz\[26\]
*606 tdc1\.w_ring_int_norsz\[27\]
*607 tdc1\.w_ring_int_norsz\[28\]
*608 tdc1\.w_ring_int_norsz\[29\]
*609 tdc1\.w_ring_int_norsz\[2\]
*610 tdc1\.w_ring_int_norsz\[30\]
*611 tdc1\.w_ring_int_norsz\[31\]
*612 tdc1\.w_ring_int_norsz\[3\]
*613 tdc1\.w_ring_int_norsz\[4\]
*614 tdc1\.w_ring_int_norsz\[5\]
*615 tdc1\.w_ring_int_norsz\[6\]
*616 tdc1\.w_ring_int_norsz\[7\]
*617 tdc1\.w_ring_int_norsz\[8\]
*618 tdc1\.w_ring_int_norsz\[9\]
*619 tdc1\.w_ring_norsz\[0\]
*620 tdc1\.w_ring_norsz\[10\]
*621 tdc1\.w_ring_norsz\[11\]
*622 tdc1\.w_ring_norsz\[12\]
*623 tdc1\.w_ring_norsz\[13\]
*624 tdc1\.w_ring_norsz\[14\]
*625 tdc1\.w_ring_norsz\[15\]
*626 tdc1\.w_ring_norsz\[16\]
*627 tdc1\.w_ring_norsz\[17\]
*628 tdc1\.w_ring_norsz\[18\]
*629 tdc1\.w_ring_norsz\[19\]
*630 tdc1\.w_ring_norsz\[1\]
*631 tdc1\.w_ring_norsz\[20\]
*632 tdc1\.w_ring_norsz\[21\]
*633 tdc1\.w_ring_norsz\[22\]
*634 tdc1\.w_ring_norsz\[23\]
*635 tdc1\.w_ring_norsz\[24\]
*636 tdc1\.w_ring_norsz\[25\]
*637 tdc1\.w_ring_norsz\[26\]
*638 tdc1\.w_ring_norsz\[27\]
*639 tdc1\.w_ring_norsz\[28\]
*640 tdc1\.w_ring_norsz\[29\]
*641 tdc1\.w_ring_norsz\[2\]
*642 tdc1\.w_ring_norsz\[30\]
*643 tdc1\.w_ring_norsz\[31\]
*644 tdc1\.w_ring_norsz\[3\]
*645 tdc1\.w_ring_norsz\[4\]
*646 tdc1\.w_ring_norsz\[5\]
*647 tdc1\.w_ring_norsz\[6\]
*648 tdc1\.w_ring_norsz\[7\]
*649 tdc1\.w_ring_norsz\[8\]
*650 tdc1\.w_ring_norsz\[9\]
*651 FILLER_0_0_109
*652 FILLER_0_0_113
*653 FILLER_0_0_125
*654 FILLER_0_0_137
*655 FILLER_0_0_141
*656 FILLER_0_0_15
*657 FILLER_0_0_153
*658 FILLER_0_0_165
*659 FILLER_0_0_169
*660 FILLER_0_0_181
*661 FILLER_0_0_193
*662 FILLER_0_0_197
*663 FILLER_0_0_209
*664 FILLER_0_0_221
*665 FILLER_0_0_225
*666 FILLER_0_0_237
*667 FILLER_0_0_249
*668 FILLER_0_0_253
*669 FILLER_0_0_265
*670 FILLER_0_0_27
*671 FILLER_0_0_277
*672 FILLER_0_0_281
*673 FILLER_0_0_29
*674 FILLER_0_0_293
*675 FILLER_0_0_3
*676 FILLER_0_0_305
*677 FILLER_0_0_309
*678 FILLER_0_0_321
*679 FILLER_0_0_333
*680 FILLER_0_0_41
*681 FILLER_0_0_53
*682 FILLER_0_0_57
*683 FILLER_0_0_69
*684 FILLER_0_0_81
*685 FILLER_0_0_85
*686 FILLER_0_0_97
*687 FILLER_0_10_109
*688 FILLER_0_10_121
*689 FILLER_0_10_133
*690 FILLER_0_10_139
*691 FILLER_0_10_141
*692 FILLER_0_10_15
*693 FILLER_0_10_153
*694 FILLER_0_10_165
*695 FILLER_0_10_177
*696 FILLER_0_10_189
*697 FILLER_0_10_195
*698 FILLER_0_10_197
*699 FILLER_0_10_209
*700 FILLER_0_10_221
*701 FILLER_0_10_233
*702 FILLER_0_10_245
*703 FILLER_0_10_251
*704 FILLER_0_10_253
*705 FILLER_0_10_265
*706 FILLER_0_10_27
*707 FILLER_0_10_277
*708 FILLER_0_10_289
*709 FILLER_0_10_29
*710 FILLER_0_10_3
*711 FILLER_0_10_301
*712 FILLER_0_10_307
*713 FILLER_0_10_309
*714 FILLER_0_10_321
*715 FILLER_0_10_333
*716 FILLER_0_10_41
*717 FILLER_0_10_53
*718 FILLER_0_10_65
*719 FILLER_0_10_77
*720 FILLER_0_10_83
*721 FILLER_0_10_85
*722 FILLER_0_10_97
*723 FILLER_0_11_105
*724 FILLER_0_11_111
*725 FILLER_0_11_113
*726 FILLER_0_11_125
*727 FILLER_0_11_137
*728 FILLER_0_11_149
*729 FILLER_0_11_15
*730 FILLER_0_11_161
*731 FILLER_0_11_167
*732 FILLER_0_11_169
*733 FILLER_0_11_181
*734 FILLER_0_11_193
*735 FILLER_0_11_205
*736 FILLER_0_11_217
*737 FILLER_0_11_223
*738 FILLER_0_11_225
*739 FILLER_0_11_237
*740 FILLER_0_11_249
*741 FILLER_0_11_261
*742 FILLER_0_11_27
*743 FILLER_0_11_273
*744 FILLER_0_11_279
*745 FILLER_0_11_281
*746 FILLER_0_11_293
*747 FILLER_0_11_3
*748 FILLER_0_11_305
*749 FILLER_0_11_317
*750 FILLER_0_11_329
*751 FILLER_0_11_39
*752 FILLER_0_11_51
*753 FILLER_0_11_55
*754 FILLER_0_11_57
*755 FILLER_0_11_69
*756 FILLER_0_11_81
*757 FILLER_0_11_93
*758 FILLER_0_12_109
*759 FILLER_0_12_121
*760 FILLER_0_12_133
*761 FILLER_0_12_139
*762 FILLER_0_12_141
*763 FILLER_0_12_15
*764 FILLER_0_12_153
*765 FILLER_0_12_165
*766 FILLER_0_12_177
*767 FILLER_0_12_189
*768 FILLER_0_12_195
*769 FILLER_0_12_197
*770 FILLER_0_12_209
*771 FILLER_0_12_221
*772 FILLER_0_12_233
*773 FILLER_0_12_245
*774 FILLER_0_12_251
*775 FILLER_0_12_253
*776 FILLER_0_12_265
*777 FILLER_0_12_27
*778 FILLER_0_12_277
*779 FILLER_0_12_289
*780 FILLER_0_12_29
*781 FILLER_0_12_3
*782 FILLER_0_12_301
*783 FILLER_0_12_307
*784 FILLER_0_12_309
*785 FILLER_0_12_321
*786 FILLER_0_12_333
*787 FILLER_0_12_41
*788 FILLER_0_12_53
*789 FILLER_0_12_65
*790 FILLER_0_12_77
*791 FILLER_0_12_83
*792 FILLER_0_12_85
*793 FILLER_0_12_97
*794 FILLER_0_13_105
*795 FILLER_0_13_111
*796 FILLER_0_13_113
*797 FILLER_0_13_125
*798 FILLER_0_13_137
*799 FILLER_0_13_149
*800 FILLER_0_13_15
*801 FILLER_0_13_161
*802 FILLER_0_13_167
*803 FILLER_0_13_169
*804 FILLER_0_13_181
*805 FILLER_0_13_193
*806 FILLER_0_13_205
*807 FILLER_0_13_217
*808 FILLER_0_13_223
*809 FILLER_0_13_225
*810 FILLER_0_13_237
*811 FILLER_0_13_249
*812 FILLER_0_13_261
*813 FILLER_0_13_27
*814 FILLER_0_13_273
*815 FILLER_0_13_279
*816 FILLER_0_13_281
*817 FILLER_0_13_293
*818 FILLER_0_13_3
*819 FILLER_0_13_305
*820 FILLER_0_13_317
*821 FILLER_0_13_329
*822 FILLER_0_13_39
*823 FILLER_0_13_51
*824 FILLER_0_13_55
*825 FILLER_0_13_57
*826 FILLER_0_13_69
*827 FILLER_0_13_81
*828 FILLER_0_13_93
*829 FILLER_0_14_109
*830 FILLER_0_14_121
*831 FILLER_0_14_133
*832 FILLER_0_14_139
*833 FILLER_0_14_141
*834 FILLER_0_14_15
*835 FILLER_0_14_153
*836 FILLER_0_14_165
*837 FILLER_0_14_177
*838 FILLER_0_14_189
*839 FILLER_0_14_195
*840 FILLER_0_14_197
*841 FILLER_0_14_209
*842 FILLER_0_14_221
*843 FILLER_0_14_233
*844 FILLER_0_14_245
*845 FILLER_0_14_251
*846 FILLER_0_14_253
*847 FILLER_0_14_265
*848 FILLER_0_14_27
*849 FILLER_0_14_277
*850 FILLER_0_14_289
*851 FILLER_0_14_29
*852 FILLER_0_14_3
*853 FILLER_0_14_301
*854 FILLER_0_14_307
*855 FILLER_0_14_309
*856 FILLER_0_14_321
*857 FILLER_0_14_333
*858 FILLER_0_14_41
*859 FILLER_0_14_53
*860 FILLER_0_14_65
*861 FILLER_0_14_77
*862 FILLER_0_14_83
*863 FILLER_0_14_85
*864 FILLER_0_14_97
*865 FILLER_0_15_105
*866 FILLER_0_15_111
*867 FILLER_0_15_113
*868 FILLER_0_15_125
*869 FILLER_0_15_137
*870 FILLER_0_15_149
*871 FILLER_0_15_15
*872 FILLER_0_15_161
*873 FILLER_0_15_167
*874 FILLER_0_15_169
*875 FILLER_0_15_181
*876 FILLER_0_15_193
*877 FILLER_0_15_205
*878 FILLER_0_15_217
*879 FILLER_0_15_223
*880 FILLER_0_15_225
*881 FILLER_0_15_237
*882 FILLER_0_15_249
*883 FILLER_0_15_261
*884 FILLER_0_15_267
*885 FILLER_0_15_27
*886 FILLER_0_15_279
*887 FILLER_0_15_281
*888 FILLER_0_15_293
*889 FILLER_0_15_3
*890 FILLER_0_15_305
*891 FILLER_0_15_317
*892 FILLER_0_15_329
*893 FILLER_0_15_39
*894 FILLER_0_15_51
*895 FILLER_0_15_55
*896 FILLER_0_15_57
*897 FILLER_0_15_69
*898 FILLER_0_15_81
*899 FILLER_0_15_93
*900 FILLER_0_16_109
*901 FILLER_0_16_121
*902 FILLER_0_16_133
*903 FILLER_0_16_139
*904 FILLER_0_16_141
*905 FILLER_0_16_15
*906 FILLER_0_16_153
*907 FILLER_0_16_165
*908 FILLER_0_16_177
*909 FILLER_0_16_189
*910 FILLER_0_16_195
*911 FILLER_0_16_197
*912 FILLER_0_16_209
*913 FILLER_0_16_215
*914 FILLER_0_16_239
*915 FILLER_0_16_243
*916 FILLER_0_16_251
*917 FILLER_0_16_27
*918 FILLER_0_16_274
*919 FILLER_0_16_280
*920 FILLER_0_16_29
*921 FILLER_0_16_3
*922 FILLER_0_16_301
*923 FILLER_0_16_307
*924 FILLER_0_16_309
*925 FILLER_0_16_321
*926 FILLER_0_16_333
*927 FILLER_0_16_41
*928 FILLER_0_16_53
*929 FILLER_0_16_65
*930 FILLER_0_16_77
*931 FILLER_0_16_83
*932 FILLER_0_16_85
*933 FILLER_0_16_97
*934 FILLER_0_17_105
*935 FILLER_0_17_111
*936 FILLER_0_17_113
*937 FILLER_0_17_125
*938 FILLER_0_17_137
*939 FILLER_0_17_149
*940 FILLER_0_17_15
*941 FILLER_0_17_161
*942 FILLER_0_17_167
*943 FILLER_0_17_169
*944 FILLER_0_17_181
*945 FILLER_0_17_193
*946 FILLER_0_17_220
*947 FILLER_0_17_233
*948 FILLER_0_17_245
*949 FILLER_0_17_253
*950 FILLER_0_17_259
*951 FILLER_0_17_27
*952 FILLER_0_17_271
*953 FILLER_0_17_284
*954 FILLER_0_17_295
*955 FILLER_0_17_3
*956 FILLER_0_17_319
*957 FILLER_0_17_331
*958 FILLER_0_17_39
*959 FILLER_0_17_51
*960 FILLER_0_17_55
*961 FILLER_0_17_57
*962 FILLER_0_17_69
*963 FILLER_0_17_81
*964 FILLER_0_17_93
*965 FILLER_0_18_109
*966 FILLER_0_18_118
*967 FILLER_0_18_133
*968 FILLER_0_18_139
*969 FILLER_0_18_144
*970 FILLER_0_18_15
*971 FILLER_0_18_156
*972 FILLER_0_18_168
*973 FILLER_0_18_183
*974 FILLER_0_18_189
*975 FILLER_0_18_203
*976 FILLER_0_18_215
*977 FILLER_0_18_224
*978 FILLER_0_18_235
*979 FILLER_0_18_245
*980 FILLER_0_18_251
*981 FILLER_0_18_27
*982 FILLER_0_18_273
*983 FILLER_0_18_284
*984 FILLER_0_18_29
*985 FILLER_0_18_299
*986 FILLER_0_18_3
*987 FILLER_0_18_303
*988 FILLER_0_18_307
*989 FILLER_0_18_312
*990 FILLER_0_18_324
*991 FILLER_0_18_332
*992 FILLER_0_18_41
*993 FILLER_0_18_53
*994 FILLER_0_18_65
*995 FILLER_0_18_77
*996 FILLER_0_18_83
*997 FILLER_0_18_85
*998 FILLER_0_18_97
*999 FILLER_0_19_107
*1000 FILLER_0_19_15
*1001 FILLER_0_19_156
*1002 FILLER_0_19_160
*1003 FILLER_0_19_190
*1004 FILLER_0_19_214
*1005 FILLER_0_19_220
*1006 FILLER_0_19_225
*1007 FILLER_0_19_238
*1008 FILLER_0_19_249
*1009 FILLER_0_19_26
*1010 FILLER_0_19_279
*1011 FILLER_0_19_281
*1012 FILLER_0_19_3
*1013 FILLER_0_19_308
*1014 FILLER_0_19_316
*1015 FILLER_0_19_327
*1016 FILLER_0_19_38
*1017 FILLER_0_19_43
*1018 FILLER_0_19_55
*1019 FILLER_0_19_57
*1020 FILLER_0_19_69
*1021 FILLER_0_19_81
*1022 FILLER_0_19_89
*1023 FILLER_0_19_95
*1024 FILLER_0_1_105
*1025 FILLER_0_1_111
*1026 FILLER_0_1_113
*1027 FILLER_0_1_125
*1028 FILLER_0_1_137
*1029 FILLER_0_1_149
*1030 FILLER_0_1_15
*1031 FILLER_0_1_161
*1032 FILLER_0_1_167
*1033 FILLER_0_1_169
*1034 FILLER_0_1_181
*1035 FILLER_0_1_193
*1036 FILLER_0_1_205
*1037 FILLER_0_1_217
*1038 FILLER_0_1_223
*1039 FILLER_0_1_225
*1040 FILLER_0_1_237
*1041 FILLER_0_1_249
*1042 FILLER_0_1_261
*1043 FILLER_0_1_27
*1044 FILLER_0_1_273
*1045 FILLER_0_1_279
*1046 FILLER_0_1_281
*1047 FILLER_0_1_293
*1048 FILLER_0_1_3
*1049 FILLER_0_1_305
*1050 FILLER_0_1_317
*1051 FILLER_0_1_329
*1052 FILLER_0_1_39
*1053 FILLER_0_1_51
*1054 FILLER_0_1_55
*1055 FILLER_0_1_57
*1056 FILLER_0_1_69
*1057 FILLER_0_1_81
*1058 FILLER_0_1_93
*1059 FILLER_0_20_105
*1060 FILLER_0_20_117
*1061 FILLER_0_20_129
*1062 FILLER_0_20_137
*1063 FILLER_0_20_141
*1064 FILLER_0_20_153
*1065 FILLER_0_20_161
*1066 FILLER_0_20_170
*1067 FILLER_0_20_180
*1068 FILLER_0_20_184
*1069 FILLER_0_20_195
*1070 FILLER_0_20_197
*1071 FILLER_0_20_205
*1072 FILLER_0_20_223
*1073 FILLER_0_20_235
*1074 FILLER_0_20_241
*1075 FILLER_0_20_249
*1076 FILLER_0_20_273
*1077 FILLER_0_20_282
*1078 FILLER_0_20_29
*1079 FILLER_0_20_294
*1080 FILLER_0_20_3
*1081 FILLER_0_20_306
*1082 FILLER_0_20_309
*1083 FILLER_0_20_313
*1084 FILLER_0_20_334
*1085 FILLER_0_20_50
*1086 FILLER_0_20_74
*1087 FILLER_0_20_83
*1088 FILLER_0_21_11
*1089 FILLER_0_21_116
*1090 FILLER_0_21_124
*1091 FILLER_0_21_148
*1092 FILLER_0_21_162
*1093 FILLER_0_21_169
*1094 FILLER_0_21_196
*1095 FILLER_0_21_208
*1096 FILLER_0_21_220
*1097 FILLER_0_21_23
*1098 FILLER_0_21_248
*1099 FILLER_0_21_260
*1100 FILLER_0_21_278
*1101 FILLER_0_21_281
*1102 FILLER_0_21_292
*1103 FILLER_0_21_296
*1104 FILLER_0_21_3
*1105 FILLER_0_21_300
*1106 FILLER_0_21_310
*1107 FILLER_0_21_320
*1108 FILLER_0_21_327
*1109 FILLER_0_21_35
*1110 FILLER_0_21_49
*1111 FILLER_0_21_54
*1112 FILLER_0_21_57
*1113 FILLER_0_21_70
*1114 FILLER_0_21_76
*1115 FILLER_0_21_81
*1116 FILLER_0_21_89
*1117 FILLER_0_22_10
*1118 FILLER_0_22_107
*1119 FILLER_0_22_113
*1120 FILLER_0_22_136
*1121 FILLER_0_22_141
*1122 FILLER_0_22_169
*1123 FILLER_0_22_187
*1124 FILLER_0_22_22
*1125 FILLER_0_22_232
*1126 FILLER_0_22_237
*1127 FILLER_0_22_249
*1128 FILLER_0_22_26
*1129 FILLER_0_22_285
*1130 FILLER_0_22_3
*1131 FILLER_0_22_306
*1132 FILLER_0_22_313
*1133 FILLER_0_22_334
*1134 FILLER_0_22_35
*1135 FILLER_0_22_42
*1136 FILLER_0_22_53
*1137 FILLER_0_22_61
*1138 FILLER_0_22_90
*1139 FILLER_0_22_98
*1140 FILLER_0_23_102
*1141 FILLER_0_23_110
*1142 FILLER_0_23_113
*1143 FILLER_0_23_125
*1144 FILLER_0_23_133
*1145 FILLER_0_23_166
*1146 FILLER_0_23_185
*1147 FILLER_0_23_194
*1148 FILLER_0_23_202
*1149 FILLER_0_23_208
*1150 FILLER_0_23_220
*1151 FILLER_0_23_257
*1152 FILLER_0_23_269
*1153 FILLER_0_23_277
*1154 FILLER_0_23_297
*1155 FILLER_0_23_3
*1156 FILLER_0_23_31
*1157 FILLER_0_23_333
*1158 FILLER_0_23_35
*1159 FILLER_0_23_48
*1160 FILLER_0_23_73
*1161 FILLER_0_23_77
*1162 FILLER_0_23_81
*1163 FILLER_0_23_85
*1164 FILLER_0_24_115
*1165 FILLER_0_24_12
*1166 FILLER_0_24_132
*1167 FILLER_0_24_157
*1168 FILLER_0_24_174
*1169 FILLER_0_24_186
*1170 FILLER_0_24_20
*1171 FILLER_0_24_233
*1172 FILLER_0_24_243
*1173 FILLER_0_24_247
*1174 FILLER_0_24_25
*1175 FILLER_0_24_251
*1176 FILLER_0_24_253
*1177 FILLER_0_24_257
*1178 FILLER_0_24_29
*1179 FILLER_0_24_3
*1180 FILLER_0_24_306
*1181 FILLER_0_24_325
*1182 FILLER_0_24_333
*1183 FILLER_0_24_41
*1184 FILLER_0_24_65
*1185 FILLER_0_24_85
*1186 FILLER_0_24_93
*1187 FILLER_0_25_106
*1188 FILLER_0_25_140
*1189 FILLER_0_25_155
*1190 FILLER_0_25_167
*1191 FILLER_0_25_169
*1192 FILLER_0_25_195
*1193 FILLER_0_25_202
*1194 FILLER_0_25_214
*1195 FILLER_0_25_223
*1196 FILLER_0_25_225
*1197 FILLER_0_25_230
*1198 FILLER_0_25_236
*1199 FILLER_0_25_263
*1200 FILLER_0_25_275
*1201 FILLER_0_25_279
*1202 FILLER_0_25_289
*1203 FILLER_0_25_293
*1204 FILLER_0_25_30
*1205 FILLER_0_25_317
*1206 FILLER_0_25_329
*1207 FILLER_0_25_54
*1208 FILLER_0_25_57
*1209 FILLER_0_25_63
*1210 FILLER_0_25_80
*1211 FILLER_0_25_88
*1212 FILLER_0_26_103
*1213 FILLER_0_26_110
*1214 FILLER_0_26_122
*1215 FILLER_0_26_130
*1216 FILLER_0_26_136
*1217 FILLER_0_26_15
*1218 FILLER_0_26_165
*1219 FILLER_0_26_177
*1220 FILLER_0_26_192
*1221 FILLER_0_26_213
*1222 FILLER_0_26_225
*1223 FILLER_0_26_243
*1224 FILLER_0_26_251
*1225 FILLER_0_26_253
*1226 FILLER_0_26_27
*1227 FILLER_0_26_277
*1228 FILLER_0_26_29
*1229 FILLER_0_26_299
*1230 FILLER_0_26_3
*1231 FILLER_0_26_307
*1232 FILLER_0_26_309
*1233 FILLER_0_26_313
*1234 FILLER_0_26_318
*1235 FILLER_0_26_33
*1236 FILLER_0_26_330
*1237 FILLER_0_26_334
*1238 FILLER_0_26_40
*1239 FILLER_0_26_62
*1240 FILLER_0_26_66
*1241 FILLER_0_26_83
*1242 FILLER_0_26_85
*1243 FILLER_0_26_91
*1244 FILLER_0_27_107
*1245 FILLER_0_27_142
*1246 FILLER_0_27_148
*1247 FILLER_0_27_15
*1248 FILLER_0_27_183
*1249 FILLER_0_27_202
*1250 FILLER_0_27_211
*1251 FILLER_0_27_232
*1252 FILLER_0_27_238
*1253 FILLER_0_27_252
*1254 FILLER_0_27_257
*1255 FILLER_0_27_266
*1256 FILLER_0_27_278
*1257 FILLER_0_27_281
*1258 FILLER_0_27_287
*1259 FILLER_0_27_291
*1260 FILLER_0_27_297
*1261 FILLER_0_27_3
*1262 FILLER_0_27_309
*1263 FILLER_0_27_330
*1264 FILLER_0_27_334
*1265 FILLER_0_27_39
*1266 FILLER_0_27_51
*1267 FILLER_0_27_55
*1268 FILLER_0_27_57
*1269 FILLER_0_27_65
*1270 FILLER_0_27_73
*1271 FILLER_0_27_96
*1272 FILLER_0_28_106
*1273 FILLER_0_28_135
*1274 FILLER_0_28_139
*1275 FILLER_0_28_15
*1276 FILLER_0_28_160
*1277 FILLER_0_28_204
*1278 FILLER_0_28_215
*1279 FILLER_0_28_219
*1280 FILLER_0_28_239
*1281 FILLER_0_28_250
*1282 FILLER_0_28_260
*1283 FILLER_0_28_287
*1284 FILLER_0_28_292
*1285 FILLER_0_28_3
*1286 FILLER_0_28_304
*1287 FILLER_0_28_309
*1288 FILLER_0_28_35
*1289 FILLER_0_28_55
*1290 FILLER_0_28_61
*1291 FILLER_0_28_73
*1292 FILLER_0_28_83
*1293 FILLER_0_28_85
*1294 FILLER_0_29_110
*1295 FILLER_0_29_113
*1296 FILLER_0_29_121
*1297 FILLER_0_29_131
*1298 FILLER_0_29_141
*1299 FILLER_0_29_15
*1300 FILLER_0_29_169
*1301 FILLER_0_29_192
*1302 FILLER_0_29_212
*1303 FILLER_0_29_236
*1304 FILLER_0_29_247
*1305 FILLER_0_29_252
*1306 FILLER_0_29_264
*1307 FILLER_0_29_269
*1308 FILLER_0_29_277
*1309 FILLER_0_29_281
*1310 FILLER_0_29_3
*1311 FILLER_0_29_304
*1312 FILLER_0_29_324
*1313 FILLER_0_29_332
*1314 FILLER_0_29_38
*1315 FILLER_0_29_45
*1316 FILLER_0_29_53
*1317 FILLER_0_29_57
*1318 FILLER_0_29_72
*1319 FILLER_0_29_84
*1320 FILLER_0_29_95
*1321 FILLER_0_2_109
*1322 FILLER_0_2_121
*1323 FILLER_0_2_133
*1324 FILLER_0_2_139
*1325 FILLER_0_2_141
*1326 FILLER_0_2_15
*1327 FILLER_0_2_153
*1328 FILLER_0_2_165
*1329 FILLER_0_2_177
*1330 FILLER_0_2_189
*1331 FILLER_0_2_195
*1332 FILLER_0_2_197
*1333 FILLER_0_2_209
*1334 FILLER_0_2_221
*1335 FILLER_0_2_233
*1336 FILLER_0_2_245
*1337 FILLER_0_2_251
*1338 FILLER_0_2_253
*1339 FILLER_0_2_265
*1340 FILLER_0_2_27
*1341 FILLER_0_2_277
*1342 FILLER_0_2_289
*1343 FILLER_0_2_29
*1344 FILLER_0_2_3
*1345 FILLER_0_2_301
*1346 FILLER_0_2_307
*1347 FILLER_0_2_309
*1348 FILLER_0_2_321
*1349 FILLER_0_2_333
*1350 FILLER_0_2_41
*1351 FILLER_0_2_53
*1352 FILLER_0_2_65
*1353 FILLER_0_2_77
*1354 FILLER_0_2_83
*1355 FILLER_0_2_85
*1356 FILLER_0_2_97
*1357 FILLER_0_30_11
*1358 FILLER_0_30_141
*1359 FILLER_0_30_146
*1360 FILLER_0_30_150
*1361 FILLER_0_30_167
*1362 FILLER_0_30_185
*1363 FILLER_0_30_193
*1364 FILLER_0_30_197
*1365 FILLER_0_30_21
*1366 FILLER_0_30_211
*1367 FILLER_0_30_220
*1368 FILLER_0_30_269
*1369 FILLER_0_30_27
*1370 FILLER_0_30_290
*1371 FILLER_0_30_3
*1372 FILLER_0_30_301
*1373 FILLER_0_30_305
*1374 FILLER_0_30_309
*1375 FILLER_0_30_333
*1376 FILLER_0_30_35
*1377 FILLER_0_30_58
*1378 FILLER_0_30_85
*1379 FILLER_0_30_94
*1380 FILLER_0_31_102
*1381 FILLER_0_31_106
*1382 FILLER_0_31_116
*1383 FILLER_0_31_120
*1384 FILLER_0_31_124
*1385 FILLER_0_31_136
*1386 FILLER_0_31_146
*1387 FILLER_0_31_15
*1388 FILLER_0_31_155
*1389 FILLER_0_31_159
*1390 FILLER_0_31_166
*1391 FILLER_0_31_169
*1392 FILLER_0_31_201
*1393 FILLER_0_31_205
*1394 FILLER_0_31_21
*1395 FILLER_0_31_219
*1396 FILLER_0_31_223
*1397 FILLER_0_31_225
*1398 FILLER_0_31_229
*1399 FILLER_0_31_236
*1400 FILLER_0_31_248
*1401 FILLER_0_31_258
*1402 FILLER_0_31_27
*1403 FILLER_0_31_278
*1404 FILLER_0_31_281
*1405 FILLER_0_31_289
*1406 FILLER_0_31_293
*1407 FILLER_0_31_3
*1408 FILLER_0_31_310